1AIJ_LDA.pdb
 OpenBabel08211712103D

 16 15  0  0  0  0  0  0  0  0999 V2000
   68.5820  123.9680   43.4160 N   0  0  0  0  0  0  0  0  0  0  0  0
   69.1140  124.0500   42.3190 O   0  0  0  0  0  0  0  0  0  0  0  0
   69.2860  123.0090   44.2320 C   0  0  0  0  0  0  0  0  0  0  0  0
   68.9080  125.1360   44.2040 C   0  0  0  0  0  0  0  0  0  0  0  0
   67.1300  123.7140   43.4080 C   0  0  0  0  0  0  0  0  0  0  0  0
   66.7090  122.5570   42.4680 C   0  0  0  0  0  0  0  0  0  0  0  0
   66.5550  121.2280   43.2590 C   0  0  0  0  0  0  0  0  0  0  0  0
   65.3750  121.4680   44.1930 C   0  0  0  0  0  0  0  0  0  0  0  0
   65.2760  120.4520   45.3220 C   0  0  0  0  0  0  0  0  0  0  0  0
   64.0260  120.8900   46.1290 C   0  0  0  0  0  0  0  0  0  0  0  0
   63.8010  119.9000   47.3020 C   0  0  0  0  0  0  0  0  0  0  0  0
   62.5550  120.3240   48.1180 C   0  0  0  0  0  0  0  0  0  0  0  0
   62.3610  119.1800   49.1040 C   0  0  0  0  0  0  0  0  0  0  0  0
   61.8830  119.7020   50.4500 C   0  0  0  0  0  0  0  0  0  0  0  0
   61.0700  118.5700   51.0570 C   0  0  0  0  0  0  0  0  0  0  0  0
   59.7950  119.1370   51.6580 C   0  0  0  0  0  0  0  0  0  0  0  0
  1  4  1  0  0  0  0
  1  3  1  0  0  0  0
  2  1  1  0  0  0  0
  5  1  1  0  0  0  0
  6  7  1  0  0  0  0
  6  5  1  0  0  0  0
  7  8  1  0  0  0  0
  8  9  1  0  0  0  0
  9 10  1  0  0  0  0
 10 11  1  0  0  0  0
 11 12  1  0  0  0  0
 12 13  1  0  0  0  0
 13 14  1  0  0  0  0
 14 15  1  0  0  0  0
 15 16  1  0  0  0  0
M  END
$$$$
