1D7K_LLP.pdb
 OpenBabel08211712103D

 24 24  0  0  1  0  0  0  0  0999 V2000
    7.9810   15.5070   53.2900 N   0  0  0  0  0  0  0  0  0  0  0  0
    8.0060   15.6710   54.6020 C   0  0  0  0  0  0  0  0  0  0  0  0
    8.8030   16.8320   55.2270 C   0  0  0  0  0  0  0  0  0  0  0  0
    7.2660   14.7650   55.4040 C   0  0  0  0  0  0  0  0  0  0  0  0
    7.3370   15.0150   56.7560 O   0  0  0  0  0  0  0  0  0  0  0  0
    6.5170   13.7660   54.8130 C   0  0  0  0  0  0  0  0  0  0  0  0
    5.8970   12.7550   55.6660 C   0  0  0  0  0  0  0  0  0  0  0  0
    6.5330   13.6720   53.3850 C   0  0  0  0  0  0  0  0  0  0  0  0
    7.2890   14.5390   52.6430 C   0  0  0  0  0  0  0  0  0  0  0  0
    5.7230   12.5030   52.7850 C   0  0  0  0  0  0  0  0  0  0  0  0
    4.3640   12.8600   52.8630 O   0  0  0  0  0  0  0  0  0  0  0  0
    3.1670   12.0590   52.0410 P   0  0  0  0  0  0  0  0  0  0  0  0
    1.9240   12.5840   52.6300 O   0  0  0  0  0  0  0  0  0  0  0  0
    3.3420   10.5590   52.2560 O   0  0  0  0  0  0  0  0  0  0  0  0
    3.5280   12.4840   50.7020 O   0  0  0  0  0  0  0  0  0  0  0  0
    9.9710    7.1010   54.9690 N   0  0  0  0  0  0  0  0  0  0  0  0
    9.2600    6.8070   56.1800 C   0  0  1  0  0  0  0  0  0  0  0  0
    8.9730    7.9380   57.1720 C   0  0  0  0  0  0  0  0  0  0  0  0
    8.1060    9.0860   56.6890 C   0  0  0  0  0  0  0  0  0  0  0  0
    7.9430   10.2520   57.6760 C   0  0  0  0  0  0  0  0  0  0  0  0
    6.6830   11.0790   57.4640 C   0  0  0  0  0  0  0  0  0  0  0  0
    6.7010   12.0540   56.4140 N   0  0  0  0  0  0  0  0  0  0  0  0
    7.8350    6.2880   55.8800 C   0  0  0  0  0  0  0  0  0  0  0  0
    7.3750    5.5760   56.7450 O   0  0  0  0  0  0  0  0  0  0  0  0
  1  2  1  0  0  0  0
  2  3  1  0  0  0  0
  2  4  2  0  0  0  0
  4  5  1  0  0  0  0
  6  4  1  0  0  0  0
  6  7  1  0  0  0  0
  7 22  2  0  0  0  0
  8  6  2  0  0  0  0
  9  1  2  0  0  0  0
  9  8  1  0  0  0  0
 10 11  1  0  0  0  0
 10  8  1  0  0  0  0
 12 14  1  0  0  0  0
 12 13  1  0  0  0  0
 12 11  1  0  0  0  0
 15 12  2  0  0  0  0
 17 16  1  6  0  0  0
 17 18  1  0  0  0  0
 19 18  2  0  0  0  0
 19 20  1  0  0  0  0
 21 20  1  0  0  0  0
 22 21  1  0  0  0  0
 23 17  1  0  0  0  0
 23 24  1  0  0  0  0
M  END
$$$$
