1G8O_U5P.pdb
 OpenBabel08211712103D

 21 22  0  0  1  0  0  0  0  0999 V2000
   84.8490   13.9900   47.7690 N   0  0  0  0  0  0  0  0  0  0  0  0
   84.8450   12.7090   48.3280 C   0  0  0  0  0  0  0  0  0  0  0  0
   83.6380   12.0500   48.2480 N   0  0  0  0  0  0  0  0  0  0  0  0
   82.4380   12.5160   47.6780 C   0  0  0  0  0  0  0  0  0  0  0  0
   82.5220   13.8300   47.1350 C   0  0  0  0  0  0  0  0  0  0  0  0
   83.6560   14.4950   47.1880 C   0  0  0  0  0  0  0  0  0  0  0  0
   85.8450   12.2500   48.8360 O   0  0  0  0  0  0  0  0  0  0  0  0
   81.4670   11.7890   47.6970 O   0  0  0  0  0  0  0  0  0  0  0  0
   86.1230   14.8110   47.7890 C   0  0  1  0  0  0  0  0  0  0  0  0
   87.1440   14.2490   46.7810 C   0  0  2  0  0  0  0  0  0  0  0  0
   88.5420   14.4390   47.1850 O   0  0  0  0  0  0  0  0  0  0  0  0
   86.7360   14.9610   45.5180 C   0  0  1  0  0  0  0  0  0  0  0  0
   86.5240   16.3720   46.0830 C   0  0  2  0  0  0  0  0  0  0  0  0
   87.6750   14.8110   44.4120 O   0  0  0  0  0  0  0  0  0  0  0  0
   85.8310   16.1070   47.3510 O   0  0  0  0  0  0  0  0  0  0  0  0
   85.5490   17.2550   45.2970 C   0  0  0  0  0  0  0  0  0  0  0  0
   85.4000   16.7890   43.9330 O   0  0  0  0  0  0  0  0  0  0  0  0
   83.9730   16.4110   43.2900 P   0  0  0  0  0  0  0  0  0  0  0  0
   83.1510   15.3380   43.9360 O   0  0  0  0  0  0  0  0  0  0  0  0
   84.1400   15.9290   41.8900 O   0  0  0  0  0  0  0  0  0  0  0  0
   83.2800   17.9240   43.1240 O   0  0  0  0  0  0  0  0  0  0  0  0
  1  2  1  0  0  0  0
  2  7  2  0  0  0  0
  3  2  1  0  0  0  0
  4  8  2  0  0  0  0
  4  3  1  0  0  0  0
  5  6  2  0  0  0  0
  5  4  1  0  0  0  0
  6  1  1  0  0  0  0
  9  1  1  6  0  0  0
 10 11  1  1  0  0  0
 10  9  1  0  0  0  0
 12 14  1  6  0  0  0
 12 13  1  0  0  0  0
 12 10  1  0  0  0  0
 13 16  1  6  0  0  0
 13 15  1  0  0  0  0
 15  9  1  0  0  0  0
 17 16  1  0  0  0  0
 18 17  1  0  0  0  0
 18 19  1  0  0  0  0
 20 18  2  0  0  0  0
 21 18  1  0  0  0  0
M  END
$$$$
