1IYH_GSH.pdb
 OpenBabel08211712103D

 20 19  0  0  1  0  0  0  0  0999 V2000
    6.2190   44.7980   71.2840 N   0  0  0  0  0  0  0  0  0  0  0  0
    7.2850   43.9420   71.8120 C   0  0  2  0  0  0  0  0  0  0  0  0
    6.9430   43.3960   73.2240 C   0  0  0  0  0  0  0  0  0  0  0  0
    6.0040   43.9130   73.8440 O   0  0  0  0  0  0  0  0  0  0  0  0
    7.6740   42.3880   73.6800 O   0  0  0  0  0  0  0  0  0  0  0  0
    8.5440   44.8110   71.8900 C   0  0  0  0  0  0  0  0  0  0  0  0
    9.8360   44.0770   71.4390 C   0  0  0  0  0  0  0  0  0  0  0  0
   10.9920   45.0860   71.6970 C   0  0  0  0  0  0  0  0  0  0  0  0
   11.2000   46.0060   70.9130 O   0  0  0  0  0  0  0  0  0  0  0  0
   11.7580   44.8220   72.7700 N   0  0  0  0  0  0  0  0  0  0  0  0
   12.9570   45.6210   73.0390 C   0  0  2  0  0  0  0  0  0  0  0  0
   14.1650   44.8530   72.4980 C   0  0  0  0  0  0  0  0  0  0  0  0
   14.2230   43.6160   72.5260 O   0  0  0  0  0  0  0  0  0  0  0  0
   13.2000   45.7520   74.5500 C   0  0  0  0  0  0  0  0  0  0  0  0
   12.1660   47.0210   75.3520 S   0  0  0  0  0  0  0  0  0  0  0  0
   15.0310   45.5750   71.7710 N   0  0  0  0  0  0  0  0  0  0  0  0
   16.1260   44.9580   71.0100 C   0  0  0  0  0  0  0  0  0  0  0  0
   16.3010   45.7300   69.7150 C   0  0  0  0  0  0  0  0  0  0  0  0
   17.0650   45.2350   68.8770 O   0  0  0  0  0  0  0  0  0  0  0  0
   15.6250   46.7830   69.5450 O   0  0  0  0  0  0  0  0  0  0  0  0
  2  1  1  1  0  0  0
  2  6  1  0  0  0  0
  2  3  1  0  0  0  0
  3  5  2  0  0  0  0
  3  4  1  0  0  0  0
  7  8  1  0  0  0  0
  7  6  1  0  0  0  0
  8 10  1  0  0  0  0
  9  8  2  0  0  0  0
 10 11  1  0  0  0  0
 11 14  1  1  0  0  0
 12 13  2  0  0  0  0
 12 11  1  0  0  0  0
 14 15  1  0  0  0  0
 16 12  1  0  0  0  0
 17 16  1  0  0  0  0
 18 17  1  0  0  0  0
 19 18  2  0  0  0  0
 20 18  1  0  0  0  0
M  END
$$$$
