1MGP_PLM.pdb
 OpenBabel08211712103D

 18 17  0  0  0  0  0  0  0  0999 V2000
   73.3860   64.0430    5.4200 C   0  0  0  0  0  0  0  0  0  0  0  0
   73.9400   64.2380    4.3200 O   0  0  0  0  0  0  0  0  0  0  0  0
   73.9100   64.3690    6.5060 O   0  0  0  0  0  0  0  0  0  0  0  0
   72.0120   63.3790    5.4350 C   0  0  0  0  0  0  0  0  0  0  0  0
   70.8530   64.3710    5.5330 C   0  0  0  0  0  0  0  0  0  0  0  0
   69.5280   63.6260    5.5490 C   0  0  0  0  0  0  0  0  0  0  0  0
   68.3490   64.5710    5.6430 C   0  0  0  0  0  0  0  0  0  0  0  0
   67.0600   63.8390    5.9290 C   0  0  0  0  0  0  0  0  0  0  0  0
   65.8900   64.8000    6.0560 C   0  0  0  0  0  0  0  0  0  0  0  0
   64.6580   64.0880    6.5810 C   0  0  0  0  0  0  0  0  0  0  0  0
   63.7640   63.6210    5.4430 C   0  0  0  0  0  0  0  0  0  0  0  0
   62.8130   62.5400    5.9090 C   0  0  0  0  0  0  0  0  0  0  0  0
   61.8560   62.1400    4.8080 C   0  0  0  0  0  0  0  0  0  0  0  0
   60.9210   61.0490    5.2990 C   0  0  0  0  0  0  0  0  0  0  0  0
   59.9390   60.6160    4.2120 C   0  0  0  0  0  0  0  0  0  0  0  0
   59.0090   59.5060    4.7290 C   0  0  0  0  0  0  0  0  0  0  0  0
   58.0280   59.0150    3.6630 C   0  0  0  0  0  0  0  0  0  0  0  0
   58.5930   57.8460    2.8610 C   0  0  0  0  0  0  0  0  0  0  0  0
  1  4  1  0  0  0  0
  1  3  1  0  0  0  0
  2  1  2  0  0  0  0
  4  5  1  0  0  0  0
  5  6  1  0  0  0  0
  6  7  1  0  0  0  0
  7  8  1  0  0  0  0
  8  9  1  0  0  0  0
  9 10  1  0  0  0  0
 11 12  1  0  0  0  0
 11 10  1  0  0  0  0
 13 14  1  0  0  0  0
 13 12  1  0  0  0  0
 15 16  1  0  0  0  0
 15 14  1  0  0  0  0
 17 16  1  0  0  0  0
 18 17  1  0  0  0  0
M  END
$$$$
