1THQ_LDA.pdb
 OpenBabel08211712103D

 16 15  0  0  0  0  0  0  0  0999 V2000
   14.3510   35.3640    0.6820 N   0  0  0  0  0  0  0  0  0  0  0  0
   13.6960   35.5010   -0.3790 O   0  0  0  0  0  0  0  0  0  0  0  0
   13.4890   34.8040    1.7390 C   0  0  0  0  0  0  0  0  0  0  0  0
   15.4410   34.4170    0.4130 C   0  0  0  0  0  0  0  0  0  0  0  0
   14.9130   36.6400    1.1130 C   0  0  0  0  0  0  0  0  0  0  0  0
   13.8010   37.6880    1.1960 C   0  0  0  0  0  0  0  0  0  0  0  0
   14.1380   38.7180    2.2600 C   0  0  0  0  0  0  0  0  0  0  0  0
   13.0840   39.8020    2.3810 C   0  0  0  0  0  0  0  0  0  0  0  0
   13.4690   41.0210    1.5600 C   0  0  0  0  0  0  0  0  0  0  0  0
   12.8910   42.3370    2.0820 C   0  0  0  0  0  0  0  0  0  0  0  0
   13.7700   42.9440    3.1750 C   0  0  0  0  0  0  0  0  0  0  0  0
   13.3940   44.3980    3.4920 C   0  0  0  0  0  0  0  0  0  0  0  0
   14.4450   45.0610    4.3910 C   0  0  0  0  0  0  0  0  0  0  0  0
   13.9780   46.4370    4.8490 C   0  0  0  0  0  0  0  0  0  0  0  0
   15.0100   47.0440    5.8180 C   0  0  0  0  0  0  0  0  0  0  0  0
   14.5190   48.3890    6.3880 C   0  0  0  0  0  0  0  0  0  0  0  0
  1  5  1  0  0  0  0
  1  3  1  0  0  0  0
  2  1  1  0  0  0  0
  4  1  1  0  0  0  0
  5  6  1  0  0  0  0
  6  7  1  0  0  0  0
  7  8  1  0  0  0  0
  9 10  1  0  0  0  0
  9  8  1  0  0  0  0
 10 11  1  0  0  0  0
 11 12  1  0  0  0  0
 12 13  1  0  0  0  0
 13 14  1  0  0  0  0
 14 15  1  0  0  0  0
 15 16  1  0  0  0  0
M  END
$$$$
