1UMX_LDA.pdb
 OpenBabel08211712103D

 16 15  0  0  0  0  0  0  0  0999 V2000
   64.2280   56.0050   87.9660 N   0  0  0  0  0  0  0  0  0  0  0  0
   63.3280   55.2520   87.6100 O   0  0  0  0  0  0  0  0  0  0  0  0
   63.8620   57.3450   88.3730 C   0  0  0  0  0  0  0  0  0  0  0  0
   65.4870   55.3440   88.2930 C   0  0  0  0  0  0  0  0  0  0  0  0
   64.6980   56.4270   86.6000 C   0  0  0  0  0  0  0  0  0  0  0  0
   65.8310   57.4860   86.5170 C   0  0  0  0  0  0  0  0  0  0  0  0
   65.8290   58.2900   85.2070 C   0  0  0  0  0  0  0  0  0  0  0  0
   67.0420   58.1110   84.2900 C   0  0  0  0  0  0  0  0  0  0  0  0
   67.3640   59.3950   83.5240 C   0  0  0  0  0  0  0  0  0  0  0  0
   68.2070   59.1700   82.2620 C   0  0  0  0  0  0  0  0  0  0  0  0
   68.1530   60.3780   81.3240 C   0  0  0  0  0  0  0  0  0  0  0  0
   68.4740   59.9910   79.8830 C   0  0  0  0  0  0  0  0  0  0  0  0
   68.4200   61.1820   78.9290 C   0  0  0  0  0  0  0  0  0  0  0  0
   68.6510   60.7940   77.4690 C   0  0  0  0  0  0  0  0  0  0  0  0
   68.8010   62.0810   76.6550 C   0  0  0  0  0  0  0  0  0  0  0  0
   68.6870   61.8720   75.1570 C   0  0  0  0  0  0  0  0  0  0  0  0
  1  4  1  0  0  0  0
  1  3  1  0  0  0  0
  2  1  1  0  0  0  0
  5  1  1  0  0  0  0
  6  5  1  0  0  0  0
  7  6  1  0  0  0  0
  8  7  1  0  0  0  0
  9  8  1  0  0  0  0
 10  9  1  0  0  0  0
 11 10  1  0  0  0  0
 12 11  1  0  0  0  0
 13 12  1  0  0  0  0
 14 13  1  0  0  0  0
 15 14  1  0  0  0  0
 16 15  1  0  0  0  0
M  END
$$$$
