2BMU_U5P.pdb
 OpenBabel08211712103D

 21 22  0  0  1  0  0  0  0  0999 V2000
   81.9010   99.5480   32.7150 N   0  0  0  0  0  0  0  0  0  0  0  0
   83.1050   98.8080   32.2070 C   0  0  0  0  0  0  0  0  0  0  0  0
   83.3790   97.5990   32.8710 N   0  0  0  0  0  0  0  0  0  0  0  0
   82.6350   97.0300   33.9450 C   0  0  0  0  0  0  0  0  0  0  0  0
   81.4040   97.7670   34.4660 C   0  0  0  0  0  0  0  0  0  0  0  0
   81.1080   98.9670   33.8370 C   0  0  0  0  0  0  0  0  0  0  0  0
   83.8260   99.1700   31.3070 O   0  0  0  0  0  0  0  0  0  0  0  0
   83.0220   95.7060   34.6090 O   0  0  0  0  0  0  0  0  0  0  0  0
   81.5640  100.8860   32.0230 C   0  0  1  0  0  0  0  0  0  0  0  0
   80.9470  100.7140   30.5640 C   0  0  2  0  0  0  0  0  0  0  0  0
   81.6310  101.6300   29.6510 O   0  0  0  0  0  0  0  0  0  0  0  0
   79.4980  100.3640   30.8850 C   0  0  1  0  0  0  0  0  0  0  0  0
   79.2360  101.4480   31.9550 C   0  0  2  0  0  0  0  0  0  0  0  0
   78.6180  100.5260   29.7950 O   0  0  0  0  0  0  0  0  0  0  0  0
   80.3590  101.3810   32.7800 O   0  0  0  0  0  0  0  0  0  0  0  0
   78.0770  101.4480   32.8360 C   0  0  0  0  0  0  0  0  0  0  0  0
   77.8890  100.1230   33.2220 O   0  0  0  0  0  0  0  0  0  0  0  0
   76.5500   99.3900   32.9820 P   0  0  0  0  0  0  0  0  0  0  0  0
   76.6810   97.9980   33.4690 O   0  0  0  0  0  0  0  0  0  0  0  0
   75.4500  100.2380   33.5130 O   0  0  0  0  0  0  0  0  0  0  0  0
   76.4760   99.4030   31.3880 O   0  0  0  0  0  0  0  0  0  0  0  0
  1  6  1  0  0  0  0
  2  1  1  0  0  0  0
  2  3  1  0  0  0  0
  3  4  1  0  0  0  0
  4  5  1  0  0  0  0
  4  8  2  0  0  0  0
  6  5  2  0  0  0  0
  7  2  2  0  0  0  0
  9  1  1  1  0  0  0
  9 15  1  0  0  0  0
 10 11  1  6  0  0  0
 10 12  1  0  0  0  0
 10  9  1  0  0  0  0
 12 14  1  6  0  0  0
 12 13  1  0  0  0  0
 13 15  1  0  0  0  0
 13 16  1  1  0  0  0
 16 17  1  0  0  0  0
 18 17  1  0  0  0  0
 18 19  1  0  0  0  0
 18 20  1  0  0  0  0
 21 18  2  0  0  0  0
M  END
$$$$
