2C81_PMP.pdb
 OpenBabel08211712103D

 16 16  0  0  0  0  0  0  0  0999 V2000
   53.4730   31.7590   40.2770 N   0  0  0  0  0  0  0  0  0  0  0  0
   53.5930   32.4530   39.0350 C   0  0  0  0  0  0  0  0  0  0  0  0
   53.3400   31.6720   37.7460 C   0  0  0  0  0  0  0  0  0  0  0  0
   53.9370   33.8180   39.0030 C   0  0  0  0  0  0  0  0  0  0  0  0
   54.0460   34.4690   37.7840 O   0  0  0  0  0  0  0  0  0  0  0  0
   54.1680   34.5070   40.2410 C   0  0  0  0  0  0  0  0  0  0  0  0
   54.5510   36.0080   40.1720 C   0  0  0  0  0  0  0  0  0  0  0  0
   53.7810   36.8820   41.0600 N   0  0  0  0  0  0  0  0  0  0  0  0
   54.0300   33.7140   41.5650 C   0  0  0  0  0  0  0  0  0  0  0  0
   53.6790   32.3460   41.5250 C   0  0  0  0  0  0  0  0  0  0  0  0
   54.2860   34.4300   42.8950 C   0  0  0  0  0  0  0  0  0  0  0  0
   53.4580   35.1380   43.1040 O   0  0  0  0  0  0  0  0  0  0  0  0
   53.8290   35.9620   44.5000 P   0  0  0  0  0  0  0  0  0  0  0  0
   54.5140   35.0510   46.0020 O   0  0  0  0  0  0  0  0  0  0  0  0
   52.1960   36.7710   45.0230 O   0  0  0  0  0  0  0  0  0  0  0  0
   55.0040   37.2670   44.1100 O   0  0  0  0  0  0  0  0  0  0  0  0
  1 10  2  0  0  0  0
  2  1  1  0  0  0  0
  3  2  1  0  0  0  0
  4  2  2  0  0  0  0
  4  6  1  0  0  0  0
  5  4  1  0  0  0  0
  6  9  2  0  0  0  0
  7  6  1  0  0  0  0
  7  8  1  0  0  0  0
  9 11  1  0  0  0  0
 10  9  1  0  0  0  0
 11 12  1  0  0  0  0
 12 13  1  0  0  0  0
 13 15  1  0  0  0  0
 13 14  1  0  0  0  0
 16 13  2  0  0  0  0
M  END
$$$$
