2CZV_BOG.pdb
 OpenBabel08211712103D

 20 20  0  0  1  0  0  0  0  0999 V2000
  -21.3880   -2.7810   -3.7850 C   0  0  1  0  0  0  0  0  0  0  0  0
  -22.4250   -2.4870   -2.8340 O   0  0  0  0  0  0  0  0  0  0  0  0
  -21.9190   -2.5280   -5.2300 C   0  0  2  0  0  0  0  0  0  0  0  0
  -23.0650   -3.3440   -5.4690 O   0  0  0  0  0  0  0  0  0  0  0  0
  -20.7890   -2.8340   -6.2600 C   0  0  1  0  0  0  0  0  0  0  0  0
  -21.2570   -2.6090   -7.5840 O   0  0  0  0  0  0  0  0  0  0  0  0
  -19.5750   -1.9210   -5.9570 C   0  0  2  0  0  0  0  0  0  0  0  0
  -18.5160   -2.1690   -6.8920 O   0  0  0  0  0  0  0  0  0  0  0  0
  -19.0740   -2.1790   -4.4910 C   0  0  2  0  0  0  0  0  0  0  0  0
  -20.1820   -1.9310   -3.5560 O   0  0  0  0  0  0  0  0  0  0  0  0
  -17.8820   -1.2630   -4.1540 C   0  0  0  0  0  0  0  0  0  0  0  0
  -16.9130   -1.9260   -3.3340 O   0  0  0  0  0  0  0  0  0  0  0  0
  -22.0350   -2.6960   -1.4730 C   0  0  0  0  0  0  0  0  0  0  0  0
  -21.8970   -1.3600   -0.7910 C   0  0  0  0  0  0  0  0  0  0  0  0
  -23.0780   -1.1430    0.1130 C   0  0  0  0  0  0  0  0  0  0  0  0
  -23.0030    0.1870    0.8290 C   0  0  0  0  0  0  0  0  0  0  0  0
  -24.2020    0.3870    1.7390 C   0  0  0  0  0  0  0  0  0  0  0  0
  -25.0620    1.5390    1.2610 C   0  0  0  0  0  0  0  0  0  0  0  0
  -26.2490    1.7480    2.1520 C   0  0  0  0  0  0  0  0  0  0  0  0
  -27.0790    2.8980    1.6420 C   0  0  0  0  0  0  0  0  0  0  0  0
  1 10  1  0  0  0  0
  1  2  1  1  0  0  0
  2 13  1  0  0  0  0
  3  4  1  6  0  0  0
  3  1  1  0  0  0  0
  5  6  1  6  0  0  0
  5  7  1  0  0  0  0
  5  3  1  0  0  0  0
  7  8  1  6  0  0  0
  7  9  1  0  0  0  0
  9 11  1  1  0  0  0
  9 10  1  0  0  0  0
 11 12  1  0  0  0  0
 13 14  1  0  0  0  0
 14 15  1  0  0  0  0
 15 16  1  0  0  0  0
 16 17  1  0  0  0  0
 18 17  1  0  0  0  0
 18 19  1  0  0  0  0
 20 19  1  0  0  0  0
M  END
$$$$
