1A8I_LLP.pdb
 OpenBabel08201720563D

 24 24  0  0  1  0  0  0  0  0999 V2000
   24.6800   25.8040   30.0960 N   0  0  0  0  0  0  0  0  0  0  0  0
   23.5600   24.9520   30.3210 C   0  0  0  0  0  0  0  0  0  0  0  0
   22.6750   25.3820   31.4380 C   0  0  0  0  0  0  0  0  0  0  0  0
   23.3880   23.8440   29.5930 C   0  0  0  0  0  0  0  0  0  0  0  0
   22.2880   23.0180   29.8790 O   0  0  0  0  0  0  0  0  0  0  0  0
   24.2360   23.4760   28.5970 C   0  0  0  0  0  0  0  0  0  0  0  0
   24.0360   22.2430   27.7410 C   0  0  0  0  0  0  0  0  0  0  0  0
   25.3490   24.2730   28.3310 C   0  0  0  0  0  0  0  0  0  0  0  0
   25.5250   25.3760   29.0980 C   0  0  0  0  0  0  0  0  0  0  0  0
   26.3180   23.8700   27.1870 C   0  0  0  0  0  0  0  0  0  0  0  0
   25.7820   24.5600   26.0030 O   0  0  0  0  0  0  0  0  0  0  0  0
   26.8030   24.7820   24.7490 P   0  0  0  0  0  0  0  0  0  0  0  0
   25.9720   25.5760   23.8310 O   0  0  0  0  0  0  0  0  0  0  0  0
   27.9360   25.7300   25.3040 O   0  0  0  0  0  0  0  0  0  0  0  0
   27.2530   23.5350   24.2660 O   0  0  0  0  0  0  0  0  0  0  0  0
   21.3520   18.9830   22.3330 N   0  0  0  0  0  0  0  0  0  0  0  0
   20.0370   19.1580   22.9400 C   0  0  1  0  0  0  0  0  0  0  0  0
   20.0730   20.1070   24.1390 C   0  0  0  0  0  0  0  0  0  0  0  0
   20.9830   19.6430   25.2580 C   0  0  0  0  0  0  0  0  0  0  0  0
   21.1440   20.7290   26.3740 C   0  0  0  0  0  0  0  0  0  0  0  0
   22.4440   20.3380   27.1020 C   0  0  0  0  0  0  0  0  0  0  0  0
   22.8050   21.4660   28.0260 N   0  0  0  0  0  0  0  0  0  0  0  0
   19.0020   19.6650   21.9200 C   0  0  0  0  0  0  0  0  0  0  0  0
   17.8450   19.2600   21.7910 O   0  0  0  0  0  0  0  0  0  0  0  0
  1  2  1  0  0  0  0
  2  3  1  0  0  0  0
  4  5  1  0  0  0  0
  4  2  2  0  0  0  0
  6  4  1  0  0  0  0
  7 22  2  0  0  0  0
  7  6  1  0  0  0  0
  8  6  2  0  0  0  0
  8  9  1  0  0  0  0
  9  1  2  0  0  0  0
 10  8  1  0  0  0  0
 11 10  1  0  0  0  0
 12 14  1  0  0  0  0
 12 11  1  0  0  0  0
 13 12  2  0  0  0  0
 15 12  1  0  0  0  0
 17 16  1  6  0  0  0
 17 18  1  0  0  0  0
 18 19  1  0  0  0  0
 19 20  1  0  0  0  0
 20 21  1  0  0  0  0
 21 22  1  0  0  0  0
 23 17  1  0  0  0  0
 24 23  2  0  0  0  0
M  END
$$$$
