1DXR_LDA.pdb
 OpenBabel08201720563D

 16 15  0  0  0  0  0  0  0  0999 V2000
  125.0820   83.2440   22.8200 N   0  0  0  0  0  0  0  0  0  0  0  0
  126.2740   82.9060   22.8800 O   0  0  0  0  0  0  0  0  0  0  0  0
  124.4980   83.2150   24.1340 C   0  0  0  0  0  0  0  0  0  0  0  0
  124.9450   84.5940   22.2990 C   0  0  0  0  0  0  0  0  0  0  0  0
  124.3430   82.3110   21.9670 C   0  0  0  0  0  0  0  0  0  0  0  0
  124.4840   80.7980   22.1340 C   0  0  0  0  0  0  0  0  0  0  0  0
  123.6540   80.0060   21.1040 C   0  0  0  0  0  0  0  0  0  0  0  0
  124.2970   78.6690   20.7770 C   0  0  0  0  0  0  0  0  0  0  0  0
  123.2960   77.5530   20.5300 C   0  0  0  0  0  0  0  0  0  0  0  0
  124.0170   76.2060   20.6030 C   0  0  0  0  0  0  0  0  0  0  0  0
  123.0870   75.0230   20.8230 C   0  0  0  0  0  0  0  0  0  0  0  0
  123.8130   73.9230   21.5760 C   0  0  0  0  0  0  0  0  0  0  0  0
  123.5890   72.5640   20.9490 C   0  0  0  0  0  0  0  0  0  0  0  0
  122.4940   71.7980   21.6520 C   0  0  0  0  0  0  0  0  0  0  0  0
  122.4020   70.3690   21.1480 C   0  0  0  0  0  0  0  0  0  0  0  0
  121.2030   69.7170   21.8420 C   0  0  0  0  0  0  0  0  0  0  0  0
  1  2  1  0  0  0  0
  1  3  1  0  0  0  0
  4  1  1  0  0  0  0
  5  6  1  0  0  0  0
  5  1  1  0  0  0  0
  7  6  1  0  0  0  0
  8  7  1  0  0  0  0
  9 10  1  0  0  0  0
  9  8  1  0  0  0  0
 10 11  1  0  0  0  0
 11 12  1  0  0  0  0
 13 12  1  0  0  0  0
 13 14  1  0  0  0  0
 15 14  1  0  0  0  0
 15 16  1  0  0  0  0
M  END
$$$$
