1I78_BOG.pdb
 OpenBabel08201720563D

 20 20  0  0  1  0  0  0  0  0999 V2000
   41.6190   51.2450   36.0710 C   0  0  1  0  0  0  0  0  0  0  0  0
   42.5270   50.5550   35.2140 O   0  0  0  0  0  0  0  0  0  0  0  0
   42.3820   52.3110   36.8870 C   0  0  2  0  0  0  0  0  0  0  0  0
   43.4090   51.7050   37.6440 O   0  0  0  0  0  0  0  0  0  0  0  0
   41.3920   53.0560   37.8020 C   0  0  1  0  0  0  0  0  0  0  0  0
   42.0770   54.0440   38.5530 O   0  0  0  0  0  0  0  0  0  0  0  0
   40.3030   53.7090   36.9270 C   0  0  2  0  0  0  0  0  0  0  0  0
   39.3700   54.4100   37.7290 O   0  0  0  0  0  0  0  0  0  0  0  0
   39.5760   52.6160   36.1040 C   0  0  2  0  0  0  0  0  0  0  0  0
   40.5510   51.8920   35.3010 O   0  0  0  0  0  0  0  0  0  0  0  0
   38.5100   53.2370   35.2010 C   0  0  0  0  0  0  0  0  0  0  0  0
   37.3750   52.3950   35.1360 O   0  0  0  0  0  0  0  0  0  0  0  0
   41.9430   49.4540   34.5250 C   0  0  0  0  0  0  0  0  0  0  0  0
   42.4520   49.4930   33.1020 C   0  0  0  0  0  0  0  0  0  0  0  0
   41.7000   48.4980   32.2480 C   0  0  0  0  0  0  0  0  0  0  0  0
   42.1940   48.5130   30.8170 C   0  0  0  0  0  0  0  0  0  0  0  0
   41.4330   47.5110   29.9740 C   0  0  0  0  0  0  0  0  0  0  0  0
   41.1830   48.0560   28.5920 C   0  0  0  0  0  0  0  0  0  0  0  0
   40.4250   47.0600   27.7500 C   0  0  0  0  0  0  0  0  0  0  0  0
   40.1810   47.6140   26.3640 C   0  0  0  0  0  0  0  0  0  0  0  0
  1  2  1  6  0  0  0
  1  3  1  0  0  0  0
  3  4  1  1  0  0  0
  3  5  1  0  0  0  0
  5  6  1  6  0  0  0
  7  8  1  1  0  0  0
  7  5  1  0  0  0  0
  9 11  1  6  0  0  0
  9  7  1  0  0  0  0
 10  1  1  0  0  0  0
 10  9  1  0  0  0  0
 12 11  1  0  0  0  0
 13  2  1  0  0  0  0
 14 13  1  0  0  0  0
 15 14  1  0  0  0  0
 16 15  1  0  0  0  0
 17 16  1  0  0  0  0
 18 17  1  0  0  0  0
 19 18  1  0  0  0  0
 20 19  1  0  0  0  0
M  END
$$$$
