1JG8_LLP.pdb
 OpenBabel08201720563D

 24 24  0  0  1  0  0  0  0  0999 V2000
   31.9740   58.9690   32.7710 N   0  0  0  0  0  0  0  0  0  0  0  0
   30.8540   58.4910   33.5660 C   0  0  0  0  0  0  0  0  0  0  0  0
   30.6510   59.0770   34.8780 C   0  0  0  0  0  0  0  0  0  0  0  0
   29.9620   57.4920   32.9500 C   0  0  0  0  0  0  0  0  0  0  0  0
   28.9880   57.0850   33.6810 O   0  0  0  0  0  0  0  0  0  0  0  0
   30.2030   56.9990   31.7420 C   0  0  0  0  0  0  0  0  0  0  0  0
   29.2970   56.0410   31.1800 C   0  0  0  0  0  0  0  0  0  0  0  0
   31.3590   57.5270   30.9220 C   0  0  0  0  0  0  0  0  0  0  0  0
   32.2400   58.4810   31.4660 C   0  0  0  0  0  0  0  0  0  0  0  0
   31.3750   56.8980   29.5080 C   0  0  0  0  0  0  0  0  0  0  0  0
   32.4310   56.5020   28.8980 O   0  0  0  0  0  0  0  0  0  0  0  0
   31.9340   55.5800   27.6340 P   0  0  0  0  0  0  0  0  0  0  0  0
   33.2280   55.3310   27.0610 O   0  0  0  0  0  0  0  0  0  0  0  0
   30.9710   56.3430   26.6910 O   0  0  0  0  0  0  0  0  0  0  0  0
   31.1950   54.4030   28.1740 O   0  0  0  0  0  0  0  0  0  0  0  0
   23.7820   57.8600   26.4260 N   0  0  0  0  0  0  0  0  0  0  0  0
   23.1720   57.2510   27.5930 C   0  0  1  0  0  0  0  0  0  0  0  0
   23.9440   57.6200   28.8530 C   0  0  0  0  0  0  0  0  0  0  0  0
   25.1590   56.7290   28.9850 C   0  0  0  0  0  0  0  0  0  0  0  0
   26.0350   57.0960   30.1280 C   0  0  0  0  0  0  0  0  0  0  0  0
   27.0370   56.0020   30.2530 C   0  0  0  0  0  0  0  0  0  0  0  0
   28.1420   56.5800   30.8980 N   0  0  0  0  0  0  0  0  0  0  0  0
   21.7280   57.7060   27.6590 C   0  0  0  0  0  0  0  0  0  0  0  0
   20.9470   57.3750   26.7690 O   0  0  0  0  0  0  0  0  0  0  0  0
  1  2  2  0  0  0  0
  2  3  1  0  0  0  0
  4  2  1  0  0  0  0
  4  5  1  0  0  0  0
  6  4  2  0  0  0  0
  7  6  1  0  0  0  0
  8  9  2  0  0  0  0
  8  6  1  0  0  0  0
  9  1  1  0  0  0  0
 10  8  1  0  0  0  0
 11 10  1  0  0  0  0
 12 15  1  0  0  0  0
 12 11  1  0  0  0  0
 13 12  1  0  0  0  0
 14 12  2  0  0  0  0
 17 16  1  6  0  0  0
 17 23  1  0  0  0  0
 17 18  1  0  0  0  0
 18 19  1  0  0  0  0
 19 20  1  0  0  0  0
 20 21  1  0  0  0  0
 21 22  1  0  0  0  0
 22  7  1  0  0  0  0
 24 23  2  0  0  0  0
M  END
$$$$
