1M98_SUC.pdb
 OpenBabel08201720563D

 23 24  0  0  1  0  0  0  0  0999 V2000
   53.7830   -4.4650    4.4220 C   0  0  1  0  0  0  0  0  0  0  0  0
   54.9880   -5.3690    4.5930 C   0  0  1  0  0  0  0  0  0  0  0  0
   56.2630   -4.5310    4.7930 C   0  0  2  0  0  0  0  0  0  0  0  0
   56.4170   -3.5750    3.6030 C   0  0  1  0  0  0  0  0  0  0  0  0
   55.1470   -2.7410    3.4810 C   0  0  1  0  0  0  0  0  0  0  0  0
   55.2940   -1.7680    2.2960 C   0  0  0  0  0  0  0  0  0  0  0  0
   53.6480   -3.6970    5.6230 O   0  0  0  0  0  0  0  0  0  0  0  0
   54.7330   -6.1750    5.7250 O   0  0  0  0  0  0  0  0  0  0  0  0
   57.3750   -5.4000    4.9430 O   0  0  0  0  0  0  0  0  0  0  0  0
   57.5100   -2.6700    3.7100 O   0  0  0  0  0  0  0  0  0  0  0  0
   54.0120   -3.6070    3.3100 O   0  0  0  0  0  0  0  0  0  0  0  0
   54.5930   -0.5360    2.4590 O   0  0  0  0  0  0  0  0  0  0  0  0
   51.9430   -4.8000    6.9210 C   0  0  0  0  0  0  0  0  0  0  0  0
   52.3300   -3.5350    6.1670 C   0  0  1  0  0  0  0  0  0  0  0  0
   52.3830   -2.3030    7.0540 C   0  0  2  0  0  0  0  0  0  0  0  0
   51.7660   -1.2250    6.1930 C   0  0  1  0  0  0  0  0  0  0  0  0
   50.8000   -1.9340    5.2980 C   0  0  1  0  0  0  0  0  0  0  0  0
   50.7630   -1.2660    3.9430 C   0  0  0  0  0  0  0  0  0  0  0  0
   52.8750   -5.0810    7.9530 O   0  0  0  0  0  0  0  0  0  0  0  0
   51.3010   -3.2650    5.1800 O   0  0  0  0  0  0  0  0  0  0  0  0
   53.7130   -1.9510    7.4280 O   0  0  0  0  0  0  0  0  0  0  0  0
   51.0380   -0.3450    6.9570 O   0  0  0  0  0  0  0  0  0  0  0  0
   50.8100   -2.3280    3.0790 O   0  0  0  0  0  0  0  0  0  0  0  0
  1  2  1  0  0  0  0
  1  7  1  1  0  0  0
  2  3  1  0  0  0  0
  2  8  1  1  0  0  0
  3  9  1  6  0  0  0
  4 10  1  1  0  0  0
  4  3  1  0  0  0  0
  5  6  1  6  0  0  0
  5  4  1  0  0  0  0
  6 12  1  0  0  0  0
  7 14  1  0  0  0  0
 11  5  1  0  0  0  0
 11  1  1  0  0  0  0
 13 19  1  0  0  0  0
 14 13  1  1  0  0  0
 15 14  1  6  0  0  0
 15 21  1  0  0  0  0
 16 22  1  1  0  0  0
 16 15  1  0  0  0  0
 17 18  1  6  0  0  0
 17 16  1  0  0  0  0
 20 17  1  0  0  0  0
 20 14  1  0  0  0  0
 23 18  1  0  0  0  0
M  END
$$$$
