1O57_1PE.pdb
 OpenBabel08201720563D

 16 15  0  0  0  0  0  0  0  0999 V2000
   61.4650    7.0590   69.9580 O   0  0  0  0  0  0  0  0  0  0  0  0
   61.4000    5.6540   70.1590 C   0  0  0  0  0  0  0  0  0  0  0  0
   59.9400    5.2210   70.1560 C   0  0  0  0  0  0  0  0  0  0  0  0
   59.5850    4.7090   68.8690 O   0  0  0  0  0  0  0  0  0  0  0  0
   60.0670    5.9070   66.8720 C   0  0  0  0  0  0  0  0  0  0  0  0
   59.0510    5.6800   67.9770 C   0  0  0  0  0  0  0  0  0  0  0  0
   59.3780    5.9040   65.6380 O   0  0  0  0  0  0  0  0  0  0  0  0
   58.6200    4.8790   63.6710 C   0  0  0  0  0  0  0  0  0  0  0  0
   59.4660    4.6900   64.9040 C   0  0  0  0  0  0  0  0  0  0  0  0
   59.4790    5.1150   62.5580 O   0  0  0  0  0  0  0  0  0  0  0  0
   59.8490    6.0490   60.3970 C   0  0  0  0  0  0  0  0  0  0  0  0
   59.0270    6.1280   61.6670 C   0  0  0  0  0  0  0  0  0  0  0  0
   61.1630    6.5430   60.6810 O   0  0  0  0  0  0  0  0  0  0  0  0
   63.5150    6.0570   60.4770 C   0  0  0  0  0  0  0  0  0  0  0  0
   62.1720    6.1170   59.7550 C   0  0  0  0  0  0  0  0  0  0  0  0
   63.8670    7.3540   60.9420 O   0  0  0  0  0  0  0  0  0  0  0  0
  1  2  1  0  0  0  0
  3  2  1  0  0  0  0
  4  3  1  0  0  0  0
  5  6  1  0  0  0  0
  6  4  1  0  0  0  0
  7  5  1  0  0  0  0
  8  9  1  0  0  0  0
  9  7  1  0  0  0  0
 10  8  1  0  0  0  0
 11 13  1  0  0  0  0
 11 12  1  0  0  0  0
 12 10  1  0  0  0  0
 14 16  1  0  0  0  0
 15 14  1  0  0  0  0
 15 13  1  0  0  0  0
M  END
$$$$
