1R4W_GSH.pdb
 OpenBabel08201720563D

 20 19  0  0  1  0  0  0  0  0999 V2000
  -40.0480   -3.6560   -1.9500 N   0  0  0  0  0  0  0  0  0  0  0  0
  -40.0160   -4.7010   -2.9740 C   0  0  2  0  0  0  0  0  0  0  0  0
  -38.7550   -4.5760   -3.8090 C   0  0  0  0  0  0  0  0  0  0  0  0
  -38.4520   -5.4920   -4.6160 O   0  0  0  0  0  0  0  0  0  0  0  0
  -38.0200   -3.4810   -3.5740 O   0  0  0  0  0  0  0  0  0  0  0  0
  -41.3410   -4.5470   -3.7450 C   0  0  0  0  0  0  0  0  0  0  0  0
  -41.7230   -5.8250   -4.5120 C   0  0  0  0  0  0  0  0  0  0  0  0
  -43.1800   -5.6340   -5.1350 C   0  0  0  0  0  0  0  0  0  0  0  0
  -43.8490   -4.5750   -4.9600 O   0  0  0  0  0  0  0  0  0  0  0  0
  -43.6530   -6.7130   -5.8090 N   0  0  0  0  0  0  0  0  0  0  0  0
  -45.0180   -6.6960   -6.3780 C   0  0  2  0  0  0  0  0  0  0  0  0
  -45.7670   -7.5330   -5.3230 C   0  0  0  0  0  0  0  0  0  0  0  0
  -45.7940   -8.7630   -5.4040 O   0  0  0  0  0  0  0  0  0  0  0  0
  -45.1390   -7.4270   -7.7760 C   0  0  0  0  0  0  0  0  0  0  0  0
  -44.0000   -6.7210   -9.0730 S   0  0  0  0  0  0  0  0  0  0  0  0
  -46.3410   -6.8330   -4.2900 N   0  0  0  0  0  0  0  0  0  0  0  0
  -47.0900   -7.4350   -3.1170 C   0  0  0  0  0  0  0  0  0  0  0  0
  -47.1360   -6.4420   -1.9040 C   0  0  0  0  0  0  0  0  0  0  0  0
  -47.7280   -6.8430   -0.8740 O   0  0  0  0  0  0  0  0  0  0  0  0
  -46.5760   -5.2740   -1.9950 O   0  0  0  0  0  0  0  0  0  0  0  0
  2  1  1  1  0  0  0
  3  5  1  0  0  0  0
  3  2  1  0  0  0  0
  4  3  2  0  0  0  0
  6  2  1  0  0  0  0
  7  6  1  0  0  0  0
  8  9  2  0  0  0  0
  8  7  1  0  0  0  0
 10  8  1  0  0  0  0
 11 14  1  6  0  0  0
 11 10  1  0  0  0  0
 11 12  1  0  0  0  0
 12 16  1  0  0  0  0
 13 12  2  0  0  0  0
 15 14  1  0  0  0  0
 16 17  1  0  0  0  0
 17 18  1  0  0  0  0
 18 19  1  0  0  0  0
 20 18  2  0  0  0  0
M  END
$$$$
