1SZ7_PLM.pdb
 OpenBabel08201720563D

 17 16  0  0  0  0  0  0  0  0999 V2000
   29.6780   29.9480   22.0730 C   0  0  0  0  0  0  0  0  0  0  0  0
   30.7920   29.6150   22.6340 O   0  0  0  0  0  0  0  0  0  0  0  0
   29.5500   30.1430   20.5880 C   0  0  0  0  0  0  0  0  0  0  0  0
   29.2740   31.6100   20.3070 C   0  0  0  0  0  0  0  0  0  0  0  0
   29.0680   31.7200   18.8070 C   0  0  0  0  0  0  0  0  0  0  0  0
   28.9680   33.1680   18.3450 C   0  0  0  0  0  0  0  0  0  0  0  0
   28.9220   33.1870   16.8150 C   0  0  0  0  0  0  0  0  0  0  0  0
   28.6560   34.5820   16.2790 C   0  0  0  0  0  0  0  0  0  0  0  0
   28.4300   34.5450   14.7710 C   0  0  0  0  0  0  0  0  0  0  0  0
   27.7190   35.8170   14.3180 C   0  0  0  0  0  0  0  0  0  0  0  0
   28.4300   36.7060   13.2960 C   0  0  0  0  0  0  0  0  0  0  0  0
   29.5310   36.0680   12.4510 C   0  0  0  0  0  0  0  0  0  0  0  0
   29.2540   36.3840   10.9840 C   0  0  0  0  0  0  0  0  0  0  0  0
   30.2490   35.6870   10.0680 C   0  0  0  0  0  0  0  0  0  0  0  0
   29.6220   35.2880    8.7330 C   0  0  0  0  0  0  0  0  0  0  0  0
   30.0100   36.2360    7.6060 C   0  0  0  0  0  0  0  0  0  0  0  0
   31.4660   36.6900    7.7240 C   0  0  0  0  0  0  0  0  0  0  0  0
  1  2  1  0  0  0  0
  3  1  1  0  0  0  0
  4  3  1  0  0  0  0
  5  4  1  0  0  0  0
  6  5  1  0  0  0  0
  7  6  1  0  0  0  0
  8  7  1  0  0  0  0
  9  8  1  0  0  0  0
 10  9  1  0  0  0  0
 11 10  1  0  0  0  0
 12 11  1  0  0  0  0
 13 12  1  0  0  0  0
 14 13  1  0  0  0  0
 15 14  1  0  0  0  0
 16 17  1  0  0  0  0
 16 15  1  0  0  0  0
M  END
$$$$
