2IDB_1PE.pdb
 OpenBabel08201720563D

 16 15  0  0  0  0  0  0  0  0999 V2000
   59.5640   59.9670   75.0510 O   0  0  0  0  0  0  0  0  0  0  0  0
   60.2890   61.0330   75.5900 C   0  0  0  0  0  0  0  0  0  0  0  0
   60.7910   61.9130   74.4720 C   0  0  0  0  0  0  0  0  0  0  0  0
   61.5100   62.9650   75.0720 O   0  0  0  0  0  0  0  0  0  0  0  0
   62.8110   64.9790   74.9120 C   0  0  0  0  0  0  0  0  0  0  0  0
   62.0540   63.8900   74.1530 C   0  0  0  0  0  0  0  0  0  0  0  0
   64.1550   64.6030   75.2410 O   0  0  0  0  0  0  0  0  0  0  0  0
   64.9980   64.6280   77.4860 C   0  0  0  0  0  0  0  0  0  0  0  0
   64.3810   63.7860   76.3840 C   0  0  0  0  0  0  0  0  0  0  0  0
   65.2080   63.7630   78.5860 O   0  0  0  0  0  0  0  0  0  0  0  0
   65.1390   63.8640   80.9420 C   0  0  0  0  0  0  0  0  0  0  0  0
   65.7790   64.4370   79.6910 C   0  0  0  0  0  0  0  0  0  0  0  0
   65.7450   62.6140   81.2360 O   0  0  0  0  0  0  0  0  0  0  0  0
   64.9990   60.4830   80.5860 C   0  0  0  0  0  0  0  0  0  0  0  0
   64.8090   61.6060   81.5890 C   0  0  0  0  0  0  0  0  0  0  0  0
   66.1510   59.7430   80.9730 O   0  0  0  0  0  0  0  0  0  0  0  0
  1  2  1  0  0  0  0
  3  4  1  0  0  0  0
  3  2  1  0  0  0  0
  5  7  1  0  0  0  0
  6  5  1  0  0  0  0
  6  4  1  0  0  0  0
  7  9  1  0  0  0  0
  8 10  1  0  0  0  0
  9  8  1  0  0  0  0
 10 12  1  0  0  0  0
 11 13  1  0  0  0  0
 12 11  1  0  0  0  0
 13 15  1  0  0  0  0
 14 16  1  0  0  0  0
 14 15  1  0  0  0  0
M  END
$$$$
