2P4B_BOG.pdb
 OpenBabel08201720563D

 20 20  0  0  1  0  0  0  0  0999 V2000
   69.5550   60.7940   64.0710 C   0  0  1  0  0  0  0  0  0  0  0  0
   69.7260   62.1950   63.8980 O   0  0  0  0  0  0  0  0  0  0  0  0
   68.8240   60.1780   62.8280 C   0  0  2  0  0  0  0  0  0  0  0  0
   67.5170   60.7570   62.6580 O   0  0  0  0  0  0  0  0  0  0  0  0
   68.7080   58.6460   63.0470 C   0  0  1  0  0  0  0  0  0  0  0  0
   68.0610   58.0200   61.9400 O   0  0  0  0  0  0  0  0  0  0  0  0
   70.1280   58.0910   63.2190 C   0  0  2  0  0  0  0  0  0  0  0  0
   70.0870   56.6660   63.4440 O   0  0  0  0  0  0  0  0  0  0  0  0
   70.7820   58.8070   64.4100 C   0  0  2  0  0  0  0  0  0  0  0  0
   70.8490   60.2200   64.2290 O   0  0  0  0  0  0  0  0  0  0  0  0
   72.1720   58.3270   64.5760 C   0  0  0  0  0  0  0  0  0  0  0  0
   72.7250   59.0210   65.6860 O   0  0  0  0  0  0  0  0  0  0  0  0
   70.4260   62.7500   65.0330 C   0  0  0  0  0  0  0  0  0  0  0  0
   70.6050   64.2420   64.7400 C   0  0  0  0  0  0  0  0  0  0  0  0
   71.3590   64.9820   65.8410 C   0  0  0  0  0  0  0  0  0  0  0  0
   71.4880   66.4420   65.3910 C   0  0  0  0  0  0  0  0  0  0  0  0
   72.2680   67.2520   66.4200 C   0  0  0  0  0  0  0  0  0  0  0  0
   72.4040   68.6960   65.9200 C   0  0  0  0  0  0  0  0  0  0  0  0
   73.2050   69.5180   66.9310 C   0  0  0  0  0  0  0  0  0  0  0  0
   73.3410   70.9520   66.4240 C   0  0  0  0  0  0  0  0  0  0  0  0
  1  2  1  6  0  0  0
  1 10  1  0  0  0  0
  2 13  1  0  0  0  0
  3  4  1  1  0  0  0
  3  5  1  0  0  0  0
  3  1  1  0  0  0  0
  5  6  1  6  0  0  0
  5  7  1  0  0  0  0
  7  8  1  1  0  0  0
  7  9  1  0  0  0  0
  9 11  1  6  0  0  0
 10  9  1  0  0  0  0
 11 12  1  0  0  0  0
 14 13  1  0  0  0  0
 14 15  1  0  0  0  0
 16 15  1  0  0  0  0
 16 17  1  0  0  0  0
 18 17  1  0  0  0  0
 18 19  1  0  0  0  0
 20 19  1  0  0  0  0
M  END
$$$$
