1G8I_1PE.pdb
 OpenBabel08201721043D

 14 13  0  0  0  0  0  0  0  0999 V2000
   18.6040    9.6900    3.6640 O   0  0  0  0  0  0  0  0  0  0  0  0
   17.5210   10.5690    3.0270 C   0  0  0  0  0  0  0  0  0  0  0  0
   17.4830   10.5350    1.5900 C   0  0  0  0  0  0  0  0  0  0  0  0
   18.4810    9.6680    0.9920 O   0  0  0  0  0  0  0  0  0  0  0  0
   19.2380    8.5620   -1.2150 C   0  0  0  0  0  0  0  0  0  0  0  0
   18.2060    9.2990   -0.5120 C   0  0  0  0  0  0  0  0  0  0  0  0
   19.3560    7.2620   -0.6560 O   0  0  0  0  0  0  0  0  0  0  0  0
   20.5930    5.0510   -0.4960 C   0  0  0  0  0  0  0  0  0  0  0  0
   20.4490    6.2680   -1.2770 C   0  0  0  0  0  0  0  0  0  0  0  0
   20.5300    5.4210    0.8830 O   0  0  0  0  0  0  0  0  0  0  0  0
   21.2450    4.5400    3.0800 C   0  0  0  0  0  0  0  0  0  0  0  0
   20.6420    4.2550    1.8340 C   0  0  0  0  0  0  0  0  0  0  0  0
   20.2320    5.1450    3.9100 O   0  0  0  0  0  0  0  0  0  0  0  0
   20.8240    6.0380    5.0560 C   0  0  0  0  0  0  0  0  0  0  0  0
  2  1  1  0  0  0  0
  3  2  1  0  0  0  0
  4  3  1  0  0  0  0
  5  7  1  0  0  0  0
  5  6  1  0  0  0  0
  6  4  1  0  0  0  0
  8 10  1  0  0  0  0
  9  7  1  0  0  0  0
  9  8  1  0  0  0  0
 10 12  1  0  0  0  0
 11 13  1  0  0  0  0
 12 11  1  0  0  0  0
 13 14  1  0  0  0  0
M  END
$$$$
