1K87_1PE.pdb
 OpenBabel08201721043D

 16 15  0  0  0  0  0  0  0  0999 V2000
   -0.4530   57.1150   38.1320 O   0  0  0  0  0  0  0  0  0  0  0  0
    0.4000   57.1020   39.2700 C   0  0  0  0  0  0  0  0  0  0  0  0
    1.2800   58.3790   39.3270 C   0  0  0  0  0  0  0  0  0  0  0  0
    2.3800   58.1630   40.0730 O   0  0  0  0  0  0  0  0  0  0  0  0
    4.7640   58.6340   39.6050 C   0  0  0  0  0  0  0  0  0  0  0  0
    3.3510   59.1740   39.7140 C   0  0  0  0  0  0  0  0  0  0  0  0
    5.0880   58.2350   38.2830 O   0  0  0  0  0  0  0  0  0  0  0  0
    6.2320   58.9560   36.3570 C   0  0  0  0  0  0  0  0  0  0  0  0
    6.3410   58.7810   37.8860 C   0  0  0  0  0  0  0  0  0  0  0  0
    6.5730   60.3240   36.0490 O   0  0  0  0  0  0  0  0  0  0  0  0
    6.1340   62.1290   34.5450 C   0  0  0  0  0  0  0  0  0  0  0  0
    6.5200   60.6420   34.6390 C   0  0  0  0  0  0  0  0  0  0  0  0
    7.3120   62.9150   34.7420 O   0  0  0  0  0  0  0  0  0  0  0  0
    8.5440   64.5620   36.0010 C   0  0  0  0  0  0  0  0  0  0  0  0
    7.2060   63.8360   35.8240 C   0  0  0  0  0  0  0  0  0  0  0  0
    9.2650   64.1320   37.1670 O   0  0  0  0  0  0  0  0  0  0  0  0
  1  2  1  0  0  0  0
  2  3  1  0  0  0  0
  3  4  1  0  0  0  0
  5  6  1  0  0  0  0
  6  4  1  0  0  0  0
  7  5  1  0  0  0  0
  8  9  1  0  0  0  0
  9  7  1  0  0  0  0
 10  8  1  0  0  0  0
 11 12  1  0  0  0  0
 11 13  1  0  0  0  0
 12 10  1  0  0  0  0
 13 15  1  0  0  0  0
 14 16  1  0  0  0  0
 15 14  1  0  0  0  0
M  END
$$$$
