1K8Q_BOG.pdb
 OpenBabel08201721043D

 20 20  0  0  1  0  0  0  0  0999 V2000
   27.0330   85.1870   33.5270 C   0  0  1  0  0  0  0  0  0  0  0  0
   26.0690   84.2280   33.0950 O   0  0  0  0  0  0  0  0  0  0  0  0
   26.8470   85.5150   35.0180 C   0  0  2  0  0  0  0  0  0  0  0  0
   25.5320   85.9950   35.2660 O   0  0  0  0  0  0  0  0  0  0  0  0
   27.8630   86.5780   35.4370 C   0  0  1  0  0  0  0  0  0  0  0  0
   27.7880   86.7660   36.8430 O   0  0  0  0  0  0  0  0  0  0  0  0
   29.2990   86.1760   35.0440 C   0  0  2  0  0  0  0  0  0  0  0  0
   30.1780   87.2780   35.2400 O   0  0  0  0  0  0  0  0  0  0  0  0
   29.3800   85.7350   33.5780 C   0  0  2  0  0  0  0  0  0  0  0  0
   28.3830   84.7260   33.3030 O   0  0  0  0  0  0  0  0  0  0  0  0
   30.7750   85.1720   33.2830 C   0  0  0  0  0  0  0  0  0  0  0  0
   30.9290   83.9010   33.9060 O   0  0  0  0  0  0  0  0  0  0  0  0
   26.0430   84.0910   31.6760 C   0  0  0  0  0  0  0  0  0  0  0  0
   26.7290   82.7890   31.2450 C   0  0  0  0  0  0  0  0  0  0  0  0
   26.7920   82.7180   29.7170 C   0  0  0  0  0  0  0  0  0  0  0  0
   27.0560   81.2900   29.2320 C   0  0  0  0  0  0  0  0  0  0  0  0
   27.0800   81.2130   27.6950 C   0  0  0  0  0  0  0  0  0  0  0  0
   25.7200   81.5820   27.0800 C   0  0  0  0  0  0  0  0  0  0  0  0
   25.6410   81.2080   25.5980 C   0  0  0  0  0  0  0  0  0  0  0  0
   26.4050   82.2040   24.7310 C   0  0  0  0  0  0  0  0  0  0  0  0
  1  2  1  1  0  0  0
  1  3  1  0  0  0  0
  3  4  1  6  0  0  0
  3  5  1  0  0  0  0
  5  6  1  1  0  0  0
  7  8  1  6  0  0  0
  7  5  1  0  0  0  0
  9 11  1  1  0  0  0
  9  7  1  0  0  0  0
 10  1  1  0  0  0  0
 10  9  1  0  0  0  0
 11 12  1  0  0  0  0
 13  2  1  0  0  0  0
 14 13  1  0  0  0  0
 15 14  1  0  0  0  0
 16 15  1  0  0  0  0
 17 16  1  0  0  0  0
 18 17  1  0  0  0  0
 19 18  1  0  0  0  0
 20 19  1  0  0  0  0
M  END
$$$$
