1R30_SAM.pdb
 OpenBabel08201721043D

 27 29  0  0  1  0  0  0  0  0999 V2000
   62.9340   56.0610   34.8540 N   0  0  0  0  0  0  0  0  0  0  0  0
   63.3790   56.7370   36.0870 C   0  0  2  0  0  0  0  0  0  0  0  0
   62.3530   57.7910   36.4920 C   0  0  0  0  0  0  0  0  0  0  0  0
   62.2240   58.7790   35.7330 O   0  0  0  0  0  0  0  0  0  0  0  0
   61.7390   57.6000   37.5630 O   0  0  0  0  0  0  0  0  0  0  0  0
   64.6900   57.4560   35.8310 C   0  0  0  0  0  0  0  0  0  0  0  0
   65.7660   56.4820   35.4040 C   0  0  0  0  0  0  0  0  0  0  0  0
   67.1690   57.5330   34.9540 S   0  0  2  0  0  0  0  0  0  0  0  0
   68.5430   56.5190   34.3350 C   0  0  0  0  0  0  0  0  0  0  0  0
   67.7100   58.4870   36.4020 C   0  0  0  0  0  0  0  0  0  0  0  0
   68.4690   59.7470   35.9990 C   0  0  1  0  0  0  0  0  0  0  0  0
   69.4810   59.4670   35.0320 O   0  0  0  0  0  0  0  0  0  0  0  0
   67.6030   60.6920   35.2320 C   0  0  1  0  0  0  0  0  0  0  0  0
   66.5590   61.2830   36.0310 O   0  0  0  0  0  0  0  0  0  0  0  0
   68.6370   61.6890   34.7770 C   0  0  1  0  0  0  0  0  0  0  0  0
   68.9290   62.5870   35.8490 O   0  0  0  0  0  0  0  0  0  0  0  0
   69.8600   60.7790   34.5140 C   0  0  2  0  0  0  0  0  0  0  0  0
   70.1390   60.6220   33.0730 N   0  0  0  0  0  0  0  0  0  0  0  0
   69.6160   59.6910   32.2680 C   0  0  0  0  0  0  0  0  0  0  0  0
   70.0910   59.8680   31.0350 N   0  0  0  0  0  0  0  0  0  0  0  0
   70.9080   60.9030   31.0620 C   0  0  0  0  0  0  0  0  0  0  0  0
   71.6670   61.5430   30.0990 C   0  0  0  0  0  0  0  0  0  0  0  0
   71.6630   61.1000   28.8520 N   0  0  0  0  0  0  0  0  0  0  0  0
   72.4200   62.6130   30.4430 N   0  0  0  0  0  0  0  0  0  0  0  0
   72.4400   63.0590   31.7040 C   0  0  0  0  0  0  0  0  0  0  0  0
   71.7110   62.4500   32.6500 N   0  0  0  0  0  0  0  0  0  0  0  0
   70.9420   61.3820   32.3500 C   0  0  0  0  0  0  0  0  0  0  0  0
  2  1  1  6  0  0  0
  2  3  1  0  0  0  0
  3  5  1  0  0  0  0
  4  3  2  0  0  0  0
  6  2  1  0  0  0  0
  7  6  1  0  0  0  0
  8  9  1  1  0  0  0
  8  7  1  0  0  0  0
  8 10  1  0  0  0  0
 11 10  1  6  0  0  0
 12 11  1  0  0  0  0
 13 11  1  0  0  0  0
 13 14  1  1  0  0  0
 15 13  1  0  0  0  0
 15 16  1  1  0  0  0
 17 18  1  6  0  0  0
 17 15  1  0  0  0  0
 17 12  1  0  0  0  0
 19 18  1  0  0  0  0
 20 21  1  0  0  0  0
 20 19  2  0  0  0  0
 21 27  2  0  0  0  0
 22 24  2  0  0  0  0
 22 21  1  0  0  0  0
 23 22  1  0  0  0  0
 24 25  1  0  0  0  0
 25 26  2  0  0  0  0
 27 26  1  0  0  0  0
 27 18  1  0  0  0  0
M  END
$$$$
