2NWL_PLM.pdb
 OpenBabel08201721043D

 17 16  0  0  0  0  0  0  0  0999 V2000
   22.1420    8.6930    5.6870 C   0  0  0  0  0  0  0  0  0  0  0  0
   21.9420    8.6840    4.4720 O   0  0  0  0  0  0  0  0  0  0  0  0
   22.1310    7.3980    6.4980 C   0  0  0  0  0  0  0  0  0  0  0  0
   23.2310    6.4420    6.0160 C   0  0  0  0  0  0  0  0  0  0  0  0
   23.1340    5.0850    6.7200 C   0  0  0  0  0  0  0  0  0  0  0  0
   23.4900    5.1970    8.2070 C   0  0  0  0  0  0  0  0  0  0  0  0
   24.7060    4.3390    8.5540 C   0  0  0  0  0  0  0  0  0  0  0  0
   25.6520    5.0680    9.5100 C   0  0  0  0  0  0  0  0  0  0  0  0
   26.3510    4.0840   10.4550 C   0  0  0  0  0  0  0  0  0  0  0  0
   27.3690    4.7940   11.3530 C   0  0  0  0  0  0  0  0  0  0  0  0
   27.1640    4.4230   12.8260 C   0  0  0  0  0  0  0  0  0  0  0  0
   28.3040    3.5340   13.3520 C   0  0  0  0  0  0  0  0  0  0  0  0
   27.8150    2.1360   13.7670 C   0  0  0  0  0  0  0  0  0  0  0  0
   28.7480    1.0330   13.2480 C   0  0  0  0  0  0  0  0  0  0  0  0
   28.0670    0.1830   12.1620 C   0  0  0  0  0  0  0  0  0  0  0  0
   28.6690    0.4410   10.7670 C   0  0  0  0  0  0  0  0  0  0  0  0
   27.8050   -0.1600    9.6440 C   0  0  0  0  0  0  0  0  0  0  0  0
  1  3  1  0  0  0  0
  2  1  2  0  0  0  0
  4  3  1  0  0  0  0
  4  5  1  0  0  0  0
  5  6  1  0  0  0  0
  6  7  1  0  0  0  0
  7  8  1  0  0  0  0
  8  9  1  0  0  0  0
  9 10  1  0  0  0  0
 10 11  1  0  0  0  0
 11 12  1  0  0  0  0
 12 13  1  0  0  0  0
 14 13  1  0  0  0  0
 15 14  1  0  0  0  0
 16 15  1  0  0  0  0
 17 16  1  0  0  0  0
M  END
$$$$
