1A0G_PMP.pdb
 OpenBabel08201720453D

 16 16  0  0  0  0  0  0  0  0999 V2000
   42.7380   18.5790   11.1750 N   0  0  0  0  0  0  0  0  0  0  0  0
   42.6360   18.0450   12.4440 C   0  0  0  0  0  0  0  0  0  0  0  0
   41.3420   17.3280   12.8560 C   0  0  0  0  0  0  0  0  0  0  0  0
   43.7220   18.0950   13.3200 C   0  0  0  0  0  0  0  0  0  0  0  0
   43.6220   17.5660   14.5900 O   0  0  0  0  0  0  0  0  0  0  0  0
   44.9050   18.6980   12.9250 C   0  0  0  0  0  0  0  0  0  0  0  0
   46.1480   18.7650   13.8910 C   0  0  0  0  0  0  0  0  0  0  0  0
   45.8810   18.7870   15.2390 N   0  0  0  0  0  0  0  0  0  0  0  0
   45.0020   19.2200   11.6410 C   0  0  0  0  0  0  0  0  0  0  0  0
   43.9110   19.1770   10.7790 C   0  0  0  0  0  0  0  0  0  0  0  0
   46.3410   19.7870   11.1560 C   0  0  0  0  0  0  0  0  0  0  0  0
   46.3980   21.1920   10.9890 O   0  0  0  0  0  0  0  0  0  0  0  0
   47.5950   22.0140   11.5570 P   0  0  0  0  0  0  0  0  0  0  0  0
   47.0540   23.3140   11.9400 O   0  0  0  0  0  0  0  0  0  0  0  0
   48.4920   22.3300   10.3370 O   0  0  0  0  0  0  0  0  0  0  0  0
   48.3850   21.1910   12.4970 O   0  0  0  0  0  0  0  0  0  0  0  0
  1  2  1  0  0  0  0
  2  3  1  0  0  0  0
  2  4  2  0  0  0  0
  4  5  1  0  0  0  0
  6  4  1  0  0  0  0
  6  7  1  0  0  0  0
  7  8  1  0  0  0  0
  9  6  2  0  0  0  0
 10  1  2  0  0  0  0
 10  9  1  0  0  0  0
 11  9  1  0  0  0  0
 12 11  1  0  0  0  0
 12 13  1  0  0  0  0
 13 14  1  0  0  0  0
 13 16  1  0  0  0  0
 15 13  2  0  0  0  0
M  END
$$$$
