1CL1_LLP.pdb
 OpenBabel08201720453D

 28 28  0  0  1  0  0  0  0  0999 V2000
   -3.7050    7.6270   52.9550 N   0  0  0  0  0  0  0  0  0  0  0  0
   -4.2560    8.3220   53.9970 C   0  0  1  0  0  0  0  0  0  0  0  0
   -3.9480    7.7690   55.3930 C   0  0  0  0  0  0  0  0  0  0  0  0
   -5.0360    9.4690   53.6580 C   0  0  0  0  0  0  0  0  0  0  0  0
   -5.6380   10.0020   54.7190 O   0  0  0  0  0  0  0  0  0  0  0  0
   -5.1940    9.8490   52.3410 C   0  0  0  0  0  0  0  0  0  0  0  0
   -5.8610   11.0950   52.0180 C   0  0  0  0  0  0  0  0  0  0  0  0
   -4.5780    8.9960   51.3090 C   0  0  0  0  0  0  0  0  0  0  0  0
   -3.8420    7.9230   51.6520 C   0  0  0  0  0  0  0  0  0  0  0  0
   -4.9250    9.3080   49.8580 C   0  0  0  0  0  0  0  0  0  0  0  0
   -4.2630   10.4580   49.3840 O   0  0  0  0  0  0  0  0  0  0  0  0
   -4.8750   11.2250   48.1010 P   0  0  0  0  0  0  0  0  0  0  0  0
   -3.9210   12.3010   47.8600 O   0  0  0  0  0  0  0  0  0  0  0  0
   -6.2040   11.7450   48.5150 O   0  0  0  0  0  0  0  0  0  0  0  0
   -5.0170   10.2280   47.0480 O   0  0  0  0  0  0  0  0  0  0  0  0
   -2.5030   16.0580   52.2580 N   0  0  0  0  0  0  0  0  0  0  0  0
   -2.9590   16.4220   53.5870 C   0  0  1  0  0  0  0  0  0  0  0  0
   -3.0460   15.1600   54.4650 C   0  0  0  0  0  0  0  0  0  0  0  0
   -4.3590   14.3600   54.3190 C   0  0  0  0  0  0  0  0  0  0  0  0
   -4.8430   14.2380   52.8860 C   0  0  0  0  0  0  0  0  0  0  0  0
   -6.1640   13.4770   52.7610 C   0  0  0  0  0  0  0  0  0  0  0  0
   -5.9050   12.0450   52.9640 N   0  0  0  0  0  0  0  0  0  0  0  0
   -2.1550   17.5600   54.2490 C   0  0  0  0  0  0  0  0  0  0  0  0
   -2.1830   18.6940   53.7560 O   0  0  0  0  0  0  0  0  0  0  0  0
   -6.2650   11.2390   51.1360 H   0  0  0  0  0  0  0  0  0  0  0  0
   -1.9450   15.2600   52.1760 H   0  0  0  0  0  0  0  0  0  0  0  0
   -5.9100   11.6920   53.8790 H   0  0  0  0  0  0  0  0  0  0  0  0
   -3.2010    6.8450   53.1740 H   0  0  0  0  0  0  0  0  0  0  0  0
  1 28  1  0  0  0  0
  1  2  1  0  0  0  0
  2  3  1  1  0  0  0
  4  2  1  0  0  0  0
  4  5  1  0  0  0  0
  6  4  2  0  0  0  0
  7  6  1  0  0  0  0
  7 22  2  0  0  0  0
  8  9  2  0  0  0  0
  8  6  1  0  0  0  0
  9  1  1  0  0  0  0
 10  8  1  0  0  0  0
 11 10  1  0  0  0  0
 12 14  1  0  0  0  0
 12 11  1  0  0  0  0
 13 12  1  0  0  0  0
 15 12  2  0  0  0  0
 16 17  1  0  0  0  0
 17 23  1  1  0  0  0
 17 18  1  0  0  0  0
 19 18  1  0  0  0  0
 20 19  1  0  0  0  0
 21 20  1  0  0  0  0
 21 22  1  0  0  0  0
 22 27  1  0  0  0  0
 24 23  2  0  0  0  0
 25  7  1  0  0  0  0
 26 16  1  0  0  0  0
M  END
$$$$
