1DBT_U5P.pdb
 OpenBabel08201720453D

 21 22  0  0  1  0  0  0  0  0999 V2000
   62.0240   57.9560   28.0310 N   0  0  0  0  0  0  0  0  0  0  0  0
   61.0740   57.8660   29.0560 C   0  0  0  0  0  0  0  0  0  0  0  0
   59.9610   57.0970   28.7470 N   0  0  0  0  0  0  0  0  0  0  0  0
   59.7130   56.4250   27.5380 C   0  0  0  0  0  0  0  0  0  0  0  0
   60.7390   56.5800   26.5680 C   0  0  0  0  0  0  0  0  0  0  0  0
   61.8100   57.3020   26.8280 C   0  0  0  0  0  0  0  0  0  0  0  0
   61.2470   58.4290   30.1260 O   0  0  0  0  0  0  0  0  0  0  0  0
   58.6910   55.7870   27.4170 O   0  0  0  0  0  0  0  0  0  0  0  0
   63.2580   58.7290   28.1970 C   0  0  1  0  0  0  0  0  0  0  0  0
   63.1470   60.2200   28.5020 C   0  0  2  0  0  0  0  0  0  0  0  0
   63.0330   61.0450   27.3200 O   0  0  0  0  0  0  0  0  0  0  0  0
   64.3790   60.5290   29.3550 C   0  0  1  0  0  0  0  0  0  0  0  0
   64.6560   59.1830   30.0260 C   0  0  2  0  0  0  0  0  0  0  0  0
   65.4700   61.0630   28.5480 O   0  0  0  0  0  0  0  0  0  0  0  0
   64.1240   58.1660   29.1580 O   0  0  0  0  0  0  0  0  0  0  0  0
   64.0630   58.9270   31.4080 C   0  0  0  0  0  0  0  0  0  0  0  0
   64.3750   60.0170   32.2830 O   0  0  0  0  0  0  0  0  0  0  0  0
   64.3220   59.9380   33.8770 P   0  0  0  0  0  0  0  0  0  0  0  0
   65.1230   60.9860   34.6070 O   0  0  0  0  0  0  0  0  0  0  0  0
   64.8530   58.6370   34.3770 O   0  0  0  0  0  0  0  0  0  0  0  0
   62.6950   59.9250   34.1780 O   0  0  0  0  0  0  0  0  0  0  0  0
  1  2  1  0  0  0  0
  2  7  2  0  0  0  0
  3  2  1  0  0  0  0
  4  3  1  0  0  0  0
  5  6  2  0  0  0  0
  5  4  1  0  0  0  0
  6  1  1  0  0  0  0
  8  4  2  0  0  0  0
  9  1  1  1  0  0  0
  9 10  1  0  0  0  0
  9 15  1  0  0  0  0
 10 11  1  6  0  0  0
 10 12  1  0  0  0  0
 12 14  1  6  0  0  0
 12 13  1  0  0  0  0
 13 16  1  1  0  0  0
 15 13  1  0  0  0  0
 16 17  1  0  0  0  0
 17 18  1  0  0  0  0
 18 21  2  0  0  0  0
 18 20  1  0  0  0  0
 18 19  1  0  0  0  0
M  END
$$$$
