1F7S_LDA.pdb
 OpenBabel08201720453D

 16 15  0  0  0  0  0  0  0  0999 V2000
   21.5080   18.6700   28.1620 N   0  0  0  0  0  0  0  0  0  0  0  0
   20.3270   18.8500   27.9450 O   0  0  0  0  0  0  0  0  0  0  0  0
   21.8150   19.0550   29.5200 C   0  0  0  0  0  0  0  0  0  0  0  0
   21.7730   17.2560   28.3240 C   0  0  0  0  0  0  0  0  0  0  0  0
   22.4420   19.3110   27.2090 C   0  0  0  0  0  0  0  0  0  0  0  0
   22.1460   19.0050   25.7180 C   0  0  0  0  0  0  0  0  0  0  0  0
   23.4690   19.0660   24.8970 C   0  0  0  0  0  0  0  0  0  0  0  0
   23.0880   19.5920   23.5160 C   0  0  0  0  0  0  0  0  0  0  0  0
   24.1760   19.1490   22.5400 C   0  0  0  0  0  0  0  0  0  0  0  0
   23.7940   19.6760   21.1560 C   0  0  0  0  0  0  0  0  0  0  0  0
   25.0310   19.5710   20.2650 C   0  0  0  0  0  0  0  0  0  0  0  0
   24.6470   20.0960   18.8820 C   0  0  0  0  0  0  0  0  0  0  0  0
   25.7200   21.1000   18.4580 C   0  0  0  0  0  0  0  0  0  0  0  0
   25.5910   21.4390   16.9760 C   0  0  0  0  0  0  0  0  0  0  0  0
   25.6910   22.9520   16.9050 C   0  0  0  0  0  0  0  0  0  0  0  0
   24.7640   23.4620   15.8150 C   0  0  0  0  0  0  0  0  0  0  0  0
  1  4  1  0  0  0  0
  1  3  1  0  0  0  0
  2  1  1  0  0  0  0
  5  1  1  0  0  0  0
  6  5  1  0  0  0  0
  7  6  1  0  0  0  0
  8  7  1  0  0  0  0
  9  8  1  0  0  0  0
 10  9  1  0  0  0  0
 11 10  1  0  0  0  0
 12 11  1  0  0  0  0
 13 12  1  0  0  0  0
 14 13  1  0  0  0  0
 15 14  1  0  0  0  0
 16 15  1  0  0  0  0
M  END
$$$$
