1FW1_GSH.pdb
 OpenBabel08201720453D

 20 19  0  0  1  0  0  0  0  0999 V2000
   33.2700   32.7090    5.3380 N   0  0  0  0  0  0  0  0  0  0  0  0
   33.4150   32.4790    6.8040 C   0  0  2  0  0  0  0  0  0  0  0  0
   34.9260   32.6270    7.1940 C   0  0  0  0  0  0  0  0  0  0  0  0
   35.1710   33.0430    8.3770 O   0  0  0  0  0  0  0  0  0  0  0  0
   35.7260   32.5070    6.2550 O   0  0  0  0  0  0  0  0  0  0  0  0
   32.8830   31.0440    7.1520 C   0  0  0  0  0  0  0  0  0  0  0  0
   32.9820   30.6950    8.6810 C   0  0  0  0  0  0  0  0  0  0  0  0
   32.1460   29.4430    9.1040 C   0  0  0  0  0  0  0  0  0  0  0  0
   31.4890   28.9090    8.1780 O   0  0  0  0  0  0  0  0  0  0  0  0
   32.6020   28.8060   10.1690 N   0  0  0  0  0  0  0  0  0  0  0  0
   32.3730   27.4000   10.4010 C   0  0  2  0  0  0  0  0  0  0  0  0
   31.4080   27.3180   11.5790 C   0  0  0  0  0  0  0  0  0  0  0  0
   31.5250   28.1580   12.5760 O   0  0  0  0  0  0  0  0  0  0  0  0
   33.6340   26.6100   10.8910 C   0  0  0  0  0  0  0  0  0  0  0  0
   34.5360   26.2410    9.4020 S   0  0  0  0  0  0  0  0  0  0  0  0
   30.1560   26.9030   11.2460 N   0  0  0  0  0  0  0  0  0  0  0  0
   29.0960   26.7710   12.2810 C   0  0  0  0  0  0  0  0  0  0  0  0
   27.9470   25.8740   11.8180 C   0  0  0  0  0  0  0  0  0  0  0  0
   26.8650   25.9950   12.5000 O   0  0  0  0  0  0  0  0  0  0  0  0
   27.8210   25.5960   10.5450 O   0  0  0  0  0  0  0  0  0  0  0  0
  2  1  1  6  0  0  0
  2  6  1  0  0  0  0
  2  3  1  0  0  0  0
  3  4  1  0  0  0  0
  5  3  2  0  0  0  0
  6  7  1  0  0  0  0
  7  8  1  0  0  0  0
  8 10  1  0  0  0  0
  9  8  2  0  0  0  0
 10 11  1  0  0  0  0
 11 14  1  1  0  0  0
 11 12  1  0  0  0  0
 12 13  2  0  0  0  0
 15 14  1  0  0  0  0
 16 12  1  0  0  0  0
 16 17  1  0  0  0  0
 18 17  1  0  0  0  0
 18 19  1  0  0  0  0
 20 18  2  0  0  0  0
M  END
$$$$
