1HMY_SAM.pdb
 OpenBabel08201720453D

 27 29  0  0  1  0  0  0  0  0999 V2000
   13.6510   18.5440   26.4630 N   0  0  0  0  0  0  0  0  0  0  0  0
   13.2600   17.6610   27.4950 C   0  0  2  0  0  0  0  0  0  0  0  0
   13.9270   18.4520   28.6050 C   0  0  0  0  0  0  0  0  0  0  0  0
   13.7260   19.7340   28.5650 O   0  0  0  0  0  0  0  0  0  0  0  0
   13.9910   17.9930   29.8110 O   0  0  0  0  0  0  0  0  0  0  0  0
   13.9830   16.3460   27.2050 C   0  0  0  0  0  0  0  0  0  0  0  0
   13.1400   15.0750   27.4620 C   0  0  0  0  0  0  0  0  0  0  0  0
   13.9720   13.5420   26.9420 S   0  0  2  0  0  0  0  0  0  0  0  0
   14.3450   13.3420   25.1940 C   0  0  0  0  0  0  0  0  0  0  0  0
   12.6480   12.4490   26.4060 C   0  0  0  0  0  0  0  0  0  0  0  0
   11.4580   12.5170   27.2450 C   0  0  1  0  0  0  0  0  0  0  0  0
   10.4950   11.6320   26.6630 O   0  0  0  0  0  0  0  0  0  0  0  0
   11.6860   12.0440   28.6950 C   0  0  1  0  0  0  0  0  0  0  0  0
   11.2560   13.1060   29.5850 O   0  0  0  0  0  0  0  0  0  0  0  0
   10.7110   10.8200   28.7490 C   0  0  1  0  0  0  0  0  0  0  0  0
   10.1660   10.6050   30.1090 O   0  0  0  0  0  0  0  0  0  0  0  0
    9.5940   11.2900   27.7550 C   0  0  2  0  0  0  0  0  0  0  0  0
    8.6460   10.1850   27.3080 N   0  0  0  0  0  0  0  0  0  0  0  0
    9.0370    8.9390   26.7730 C   0  0  0  0  0  0  0  0  0  0  0  0
    8.0450    8.1790   26.3570 N   0  0  0  0  0  0  0  0  0  0  0  0
    6.8570    8.9600   26.6150 C   0  0  0  0  0  0  0  0  0  0  0  0
    5.4570    8.7040   26.3400 C   0  0  0  0  0  0  0  0  0  0  0  0
    4.9980    7.5410   25.7660 N   0  0  0  0  0  0  0  0  0  0  0  0
    4.6190    9.6890   26.6890 N   0  0  0  0  0  0  0  0  0  0  0  0
    5.0650   10.8120   27.2640 C   0  0  0  0  0  0  0  0  0  0  0  0
    6.3190   11.1910   27.5880 N   0  0  0  0  0  0  0  0  0  0  0  0
    7.2050   10.1920   27.2140 C   0  0  0  0  0  0  0  0  0  0  0  0
  2  1  1  6  0  0  0
  2  3  1  0  0  0  0
  3  5  1  0  0  0  0
  4  3  2  0  0  0  0
  6  7  1  0  0  0  0
  6  2  1  0  0  0  0
  8  9  1  6  0  0  0
  8  7  1  0  0  0  0
 10  8  1  0  0  0  0
 11 10  1  6  0  0  0
 11 13  1  0  0  0  0
 12 11  1  0  0  0  0
 12 17  1  0  0  0  0
 13 15  1  0  0  0  0
 13 14  1  1  0  0  0
 15 16  1  1  0  0  0
 17 18  1  6  0  0  0
 17 15  1  0  0  0  0
 19 18  1  0  0  0  0
 20 21  1  0  0  0  0
 20 19  2  0  0  0  0
 21 27  1  0  0  0  0
 22 21  2  0  0  0  0
 22 24  1  0  0  0  0
 23 22  1  0  0  0  0
 24 25  2  0  0  0  0
 25 26  1  0  0  0  0
 27 18  1  0  0  0  0
 27 26  2  0  0  0  0
M  END
$$$$
