1IUG_LLP.pdb
 OpenBabel08201720453D

 24 24  0  0  1  0  0  0  0  0999 V2000
   24.5980   87.2540   42.3680 N   0  0  0  0  0  0  0  0  0  0  0  0
   24.5160   85.9530   41.9520 C   0  0  0  0  0  0  0  0  0  0  0  0
   25.0730   85.7050   40.5650 C   0  0  0  0  0  0  0  0  0  0  0  0
   23.9560   84.9990   42.7880 C   0  0  0  0  0  0  0  0  0  0  0  0
   23.9270   83.7660   42.2760 O   0  0  0  0  0  0  0  0  0  0  0  0
   23.4630   85.3510   44.0800 C   0  0  0  0  0  0  0  0  0  0  0  0
   22.8480   84.2320   44.9550 C   0  0  0  0  0  0  0  0  0  0  0  0
   23.5640   86.6870   44.4750 C   0  0  0  0  0  0  0  0  0  0  0  0
   24.1270   87.5860   43.6000 C   0  0  0  0  0  0  0  0  0  0  0  0
   23.0950   87.2390   45.8060 C   0  0  0  0  0  0  0  0  0  0  0  0
   21.8210   86.8200   46.2040 O   0  0  0  0  0  0  0  0  0  0  0  0
   21.3930   86.8980   47.6900 P   0  0  0  0  0  0  0  0  0  0  0  0
   20.0090   86.3610   47.6300 O   0  0  0  0  0  0  0  0  0  0  0  0
   21.4680   88.3300   48.0850 O   0  0  0  0  0  0  0  0  0  0  0  0
   22.3150   86.0400   48.4380 O   0  0  0  0  0  0  0  0  0  0  0  0
   26.1090   79.5790   48.2830 N   0  0  0  0  0  0  0  0  0  0  0  0
   26.2890   78.9710   46.9580 C   0  0  1  0  0  0  0  0  0  0  0  0
   26.6240   80.0390   45.9060 C   0  0  0  0  0  0  0  0  0  0  0  0
   25.5620   81.1190   45.6020 C   0  0  0  0  0  0  0  0  0  0  0  0
   24.1660   80.7330   46.0360 C   0  0  0  0  0  0  0  0  0  0  0  0
   23.0880   81.7710   45.6920 C   0  0  0  0  0  0  0  0  0  0  0  0
   23.4770   83.0140   44.9550 N   0  0  0  0  0  0  0  0  0  0  0  0
   27.4330   77.9490   47.0720 C   0  0  0  0  0  0  0  0  0  0  0  0
   27.3440   77.0000   47.8440 O   0  0  0  0  0  0  0  0  0  0  0  0
  1  9  1  0  0  0  0
  2  1  2  0  0  0  0
  2  4  1  0  0  0  0
  3  2  1  0  0  0  0
  4  6  2  0  0  0  0
  5  4  1  0  0  0  0
  6  8  1  0  0  0  0
  6  7  1  0  0  0  0
  7 22  2  0  0  0  0
  8 10  1  0  0  0  0
  9  8  2  0  0  0  0
 10 11  1  0  0  0  0
 11 12  1  0  0  0  0
 12 14  1  0  0  0  0
 12 15  1  0  0  0  0
 13 12  2  0  0  0  0
 17 23  1  0  0  0  0
 17 16  1  1  0  0  0
 18 17  1  0  0  0  0
 19 18  1  0  0  0  0
 19 20  1  0  0  0  0
 21 20  1  0  0  0  0
 22 21  1  0  0  0  0
 23 24  2  0  0  0  0
M  END
$$$$
