1NT2_SAM.pdb
 OpenBabel08201720453D

 27 29  0  0  1  0  0  0  0  0999 V2000
   33.3430   32.3040   33.4770 N   0  0  0  0  0  0  0  0  0  0  0  0
   34.7620   32.0910   33.8590 C   0  0  2  0  0  0  0  0  0  0  0  0
   34.9140   30.8190   34.6830 C   0  0  0  0  0  0  0  0  0  0  0  0
   33.9050   30.1610   34.9210 O   0  0  0  0  0  0  0  0  0  0  0  0
   36.1000   30.5300   35.0670 O   0  0  0  0  0  0  0  0  0  0  0  0
   35.2900   33.3330   34.6320 C   0  0  0  0  0  0  0  0  0  0  0  0
   35.9750   34.2840   33.6580 C   0  0  0  0  0  0  0  0  0  0  0  0
   36.7510   35.8490   34.2620 S   0  0  2  0  0  0  0  0  0  0  0  0
   35.4410   36.9600   34.8010 C   0  0  0  0  0  0  0  0  0  0  0  0
   37.4300   36.6380   32.8590 C   0  0  0  0  0  0  0  0  0  0  0  0
   38.5500   35.9060   32.1560 C   0  0  1  0  0  0  0  0  0  0  0  0
   38.9260   36.7270   31.0480 O   0  0  0  0  0  0  0  0  0  0  0  0
   39.8280   35.7580   32.9820 C   0  0  1  0  0  0  0  0  0  0  0  0
   39.9470   34.3240   33.1780 O   0  0  0  0  0  0  0  0  0  0  0  0
   40.9820   36.2240   32.1060 C   0  0  1  0  0  0  0  0  0  0  0  0
   42.1830   35.4830   32.0000 O   0  0  0  0  0  0  0  0  0  0  0  0
   40.2860   36.5500   30.7700 C   0  0  2  0  0  0  0  0  0  0  0  0
   40.7710   37.7570   30.1240 N   0  0  0  0  0  0  0  0  0  0  0  0
   40.7310   39.0550   30.5630 C   0  0  0  0  0  0  0  0  0  0  0  0
   41.2440   39.9100   29.7300 N   0  0  0  0  0  0  0  0  0  0  0  0
   41.6550   39.1290   28.6620 C   0  0  0  0  0  0  0  0  0  0  0  0
   42.2850   39.4400   27.4200 C   0  0  0  0  0  0  0  0  0  0  0  0
   42.6070   40.7010   27.0750 N   0  0  0  0  0  0  0  0  0  0  0  0
   42.5780   38.4130   26.5400 N   0  0  0  0  0  0  0  0  0  0  0  0
   42.2460   37.1400   26.9000 C   0  0  0  0  0  0  0  0  0  0  0  0
   41.6450   36.7340   28.0440 N   0  0  0  0  0  0  0  0  0  0  0  0
   41.3740   37.7910   28.8920 C   0  0  0  0  0  0  0  0  0  0  0  0
  2  1  1  1  0  0  0
  2  6  1  0  0  0  0
  2  3  1  0  0  0  0
  3  4  2  0  0  0  0
  3  5  1  0  0  0  0
  7  8  1  0  0  0  0
  7  6  1  0  0  0  0
  8  9  1  6  0  0  0
 10  8  1  0  0  0  0
 11 10  1  1  0  0  0
 11 13  1  0  0  0  0
 12 11  1  0  0  0  0
 13 14  1  6  0  0  0
 15 16  1  6  0  0  0
 15 13  1  0  0  0  0
 17 18  1  1  0  0  0
 17 12  1  0  0  0  0
 17 15  1  0  0  0  0
 18 19  1  0  0  0  0
 20 19  2  0  0  0  0
 21 27  1  0  0  0  0
 21 20  1  0  0  0  0
 22 21  2  0  0  0  0
 23 22  1  0  0  0  0
 24 25  2  0  0  0  0
 24 22  1  0  0  0  0
 25 26  1  0  0  0  0
 26 27  2  0  0  0  0
 27 18  1  0  0  0  0
M  END
$$$$
