1OJD_LDA.pdb
 OpenBabel08201720453D

 16 15  0  0  0  0  0  0  0  0999 V2000
    5.6990   14.7690    9.9400 N   0  0  0  0  0  0  0  0  0  0  0  0
    6.5990   15.6290   10.1130 O   0  0  0  0  0  0  0  0  0  0  0  0
    4.3480   15.3140   10.1410 C   0  0  0  0  0  0  0  0  0  0  0  0
    5.7500   14.3240    8.5530 C   0  0  0  0  0  0  0  0  0  0  0  0
    5.9610   13.6440   10.8260 C   0  0  0  0  0  0  0  0  0  0  0  0
    5.3360   13.9660   12.1730 C   0  0  0  0  0  0  0  0  0  0  0  0
    5.7860   12.9760   13.2000 C   0  0  0  0  0  0  0  0  0  0  0  0
    5.6050   13.6480   14.5320 C   0  0  0  0  0  0  0  0  0  0  0  0
    5.6470   12.5740   15.5880 C   0  0  0  0  0  0  0  0  0  0  0  0
    4.9930   13.1350   16.8290 C   0  0  0  0  0  0  0  0  0  0  0  0
    5.8520   12.7750   18.0160 C   0  0  0  0  0  0  0  0  0  0  0  0
    5.0430   12.4970   19.2660 C   0  0  0  0  0  0  0  0  0  0  0  0
    4.8270   11.0000   19.4420 C   0  0  0  0  0  0  0  0  0  0  0  0
    4.1180   10.7650   20.7650 C   0  0  0  0  0  0  0  0  0  0  0  0
    4.9180   11.5220   21.8000 C   0  0  0  0  0  0  0  0  0  0  0  0
    5.7870   10.4930   22.4850 C   0  0  0  0  0  0  0  0  0  0  0  0
  1  2  1  0  0  0  0
  1  3  1  0  0  0  0
  1  5  1  0  0  0  0
  4  1  1  0  0  0  0
  5  6  1  0  0  0  0
  6  7  1  0  0  0  0
  7  8  1  0  0  0  0
  8  9  1  0  0  0  0
  9 10  1  0  0  0  0
 10 11  1  0  0  0  0
 11 12  1  0  0  0  0
 12 13  1  0  0  0  0
 13 14  1  0  0  0  0
 14 15  1  0  0  0  0
 15 16  1  0  0  0  0
M  END
$$$$
