1PQ2_PLM.pdb
 OpenBabel08201720453D

 18 17  0  0  0  0  0  0  0  0999 V2000
  -10.4400    0.3170  -19.2380 C   0  0  0  0  0  0  0  0  0  0  0  0
  -10.4970   -0.8750  -18.8370 O   0  0  0  0  0  0  0  0  0  0  0  0
   -9.6360    0.7080  -20.1200 O   0  0  0  0  0  0  0  0  0  0  0  0
  -11.3890    1.3170  -18.6100 C   0  0  0  0  0  0  0  0  0  0  0  0
  -11.9480    0.7990  -17.3080 C   0  0  0  0  0  0  0  0  0  0  0  0
  -12.8960    1.7960  -16.6840 C   0  0  0  0  0  0  0  0  0  0  0  0
  -13.4340    1.2490  -15.3730 C   0  0  0  0  0  0  0  0  0  0  0  0
  -14.4650    2.1640  -14.7970 C   0  0  0  0  0  0  0  0  0  0  0  0
  -15.2640    1.4380  -13.7390 C   0  0  0  0  0  0  0  0  0  0  0  0
  -16.3240    2.3480  -13.1640 C   0  0  0  0  0  0  0  0  0  0  0  0
  -17.1220    1.6220  -12.1200 C   0  0  0  0  0  0  0  0  0  0  0  0
  -18.1910    2.5090  -11.5660 C   0  0  0  0  0  0  0  0  0  0  0  0
  -19.5410    1.9100  -11.8830 C   0  0  0  0  0  0  0  0  0  0  0  0
  -20.6750    2.7490  -11.3250 C   0  0  0  0  0  0  0  0  0  0  0  0
  -21.9930    2.0880  -11.6580 C   0  0  0  0  0  0  0  0  0  0  0  0
  -23.1860    2.8700  -11.1280 C   0  0  0  0  0  0  0  0  0  0  0  0
  -24.4830    2.2060  -11.5500 C   0  0  0  0  0  0  0  0  0  0  0  0
  -25.7060    2.9670  -11.0420 C   0  0  0  0  0  0  0  0  0  0  0  0
  1  2  1  0  0  0  0
  1  4  1  0  0  0  0
  3  1  2  0  0  0  0
  4  5  1  0  0  0  0
  5  6  1  0  0  0  0
  6  7  1  0  0  0  0
  7  8  1  0  0  0  0
  8  9  1  0  0  0  0
  9 10  1  0  0  0  0
 10 11  1  0  0  0  0
 11 12  1  0  0  0  0
 13 12  1  0  0  0  0
 13 14  1  0  0  0  0
 15 14  1  0  0  0  0
 15 16  1  0  0  0  0
 17 16  1  0  0  0  0
 17 18  1  0  0  0  0
M  END
$$$$
