1UU1_PMP.pdb
 OpenBabel08201720453D

 16 16  0  0  0  0  0  0  0  0999 V2000
   -9.2130   71.5300   75.9310 N   0  0  0  0  0  0  0  0  0  0  0  0
   -9.8310   70.7950   76.8700 C   0  0  0  0  0  0  0  0  0  0  0  0
  -11.0820   69.9990   76.4960 C   0  0  0  0  0  0  0  0  0  0  0  0
   -9.3310   70.7570   78.1700 C   0  0  0  0  0  0  0  0  0  0  0  0
   -9.9630   69.9940   79.1040 O   0  0  0  0  0  0  0  0  0  0  0  0
   -8.1870   71.4780   78.5080 C   0  0  0  0  0  0  0  0  0  0  0  0
   -7.6390   71.4710   79.9400 C   0  0  0  0  0  0  0  0  0  0  0  0
   -8.7270   71.4810   80.9300 N   0  0  0  0  0  0  0  0  0  0  0  0
   -7.5810   72.2150   77.4910 C   0  0  0  0  0  0  0  0  0  0  0  0
   -8.1240   72.2240   76.2090 C   0  0  0  0  0  0  0  0  0  0  0  0
   -6.2300   72.9140   77.6790 C   0  0  0  0  0  0  0  0  0  0  0  0
   -5.1460   72.1750   78.0350 O   0  0  0  0  0  0  0  0  0  0  0  0
   -3.7990   73.0590   78.0080 P   0  0  0  0  0  0  0  0  0  0  0  0
   -2.8430   72.3750   76.9100 O   0  0  0  0  0  0  0  0  0  0  0  0
   -3.1230   72.7830   79.4420 O   0  0  0  0  0  0  0  0  0  0  0  0
   -3.9980   74.4950   77.7080 O   0  0  0  0  0  0  0  0  0  0  0  0
  1 10  2  0  0  0  0
  1  2  1  0  0  0  0
  2  4  2  0  0  0  0
  3  2  1  0  0  0  0
  4  6  1  0  0  0  0
  4  5  1  0  0  0  0
  6  7  1  0  0  0  0
  7  8  1  0  0  0  0
  9 11  1  0  0  0  0
  9  6  2  0  0  0  0
 10  9  1  0  0  0  0
 11 12  1  0  0  0  0
 13 12  1  0  0  0  0
 13 15  1  0  0  0  0
 14 13  2  0  0  0  0
 16 13  1  0  0  0  0
M  END
$$$$
