1Y10_1PE.pdb
 OpenBabel08201720453D

 16 15  0  0  0  0  0  0  0  0999 V2000
   19.9670   65.6450   37.4260 O   0  0  0  0  0  0  0  0  0  0  0  0
   20.0800   64.8920   38.6330 C   0  0  0  0  0  0  0  0  0  0  0  0
   19.8820   65.7990   39.8570 C   0  0  0  0  0  0  0  0  0  0  0  0
   18.9320   65.2230   40.7660 O   0  0  0  0  0  0  0  0  0  0  0  0
   18.3160   65.1370   43.1190 C   0  0  0  0  0  0  0  0  0  0  0  0
   18.7610   66.0090   41.9470 C   0  0  0  0  0  0  0  0  0  0  0  0
   19.1530   65.3960   44.2590 O   0  0  0  0  0  0  0  0  0  0  0  0
   19.2200   66.0740   46.6180 C   0  0  0  0  0  0  0  0  0  0  0  0
   18.5340   66.2360   45.2600 C   0  0  0  0  0  0  0  0  0  0  0  0
   19.8490   67.3140   46.9820 O   0  0  0  0  0  0  0  0  0  0  0  0
   20.1020   69.1730   48.5120 C   0  0  0  0  0  0  0  0  0  0  0  0
   19.5510   67.7510   48.3100 C   0  0  0  0  0  0  0  0  0  0  0  0
   19.9660   69.5150   49.9050 O   0  0  0  0  0  0  0  0  0  0  0  0
   20.2550   71.1090   51.7100 C   0  0  0  0  0  0  0  0  0  0  0  0
   20.4700   70.8220   50.2160 C   0  0  0  0  0  0  0  0  0  0  0  0
   20.5960   72.4590   52.0480 O   0  0  0  0  0  0  0  0  0  0  0  0
  1  2  1  0  0  0  0
  2  3  1  0  0  0  0
  3  4  1  0  0  0  0
  4  6  1  0  0  0  0
  5  7  1  0  0  0  0
  6  5  1  0  0  0  0
  7  9  1  0  0  0  0
  8 10  1  0  0  0  0
  9  8  1  0  0  0  0
 10 12  1  0  0  0  0
 11 13  1  0  0  0  0
 12 11  1  0  0  0  0
 13 15  1  0  0  0  0
 14 16  1  0  0  0  0
 15 14  1  0  0  0  0
M  END
$$$$
