2FIK_PLM.pdb
 OpenBabel08201720453D

 18 17  0  0  0  0  0  0  0  0999 V2000
   21.3320   52.6670   21.9360 C   0  0  0  0  0  0  0  0  0  0  0  0
   20.2380   52.4830   21.3620 O   0  0  0  0  0  0  0  0  0  0  0  0
   22.2720   51.8780   21.7010 O   0  0  0  0  0  0  0  0  0  0  0  0
   21.5210   53.8110   22.8990 C   0  0  0  0  0  0  0  0  0  0  0  0
   20.3120   54.7370   22.8480 C   0  0  0  0  0  0  0  0  0  0  0  0
   19.5130   54.7070   24.1480 C   0  0  0  0  0  0  0  0  0  0  0  0
   19.3640   56.1080   24.7090 C   0  0  0  0  0  0  0  0  0  0  0  0
   20.5680   56.4180   25.5840 C   0  0  0  0  0  0  0  0  0  0  0  0
   20.9740   57.8810   25.5220 C   0  0  0  0  0  0  0  0  0  0  0  0
   21.9430   58.1630   26.6610 C   0  0  0  0  0  0  0  0  0  0  0  0
   23.1470   58.9470   26.1720 C   0  0  0  0  0  0  0  0  0  0  0  0
   24.4100   58.4290   26.8330 C   0  0  0  0  0  0  0  0  0  0  0  0
   24.9040   57.1990   26.0940 C   0  0  0  0  0  0  0  0  0  0  0  0
   26.1060   56.6210   26.8130 C   0  0  0  0  0  0  0  0  0  0  0  0
   26.7570   55.6470   25.8550 C   0  0  0  0  0  0  0  0  0  0  0  0
   28.2510   55.8870   25.8550 C   0  0  0  0  0  0  0  0  0  0  0  0
   28.7410   56.3850   24.5120 C   0  0  0  0  0  0  0  0  0  0  0  0
   30.0560   57.1270   24.6930 C   0  0  0  0  0  0  0  0  0  0  0  0
  1  4  1  0  0  0  0
  2  1  2  0  0  0  0
  3  1  1  0  0  0  0
  5  4  1  0  0  0  0
  5  6  1  0  0  0  0
  6  7  1  0  0  0  0
  7  8  1  0  0  0  0
  9  8  1  0  0  0  0
  9 10  1  0  0  0  0
 11 10  1  0  0  0  0
 11 12  1  0  0  0  0
 13 14  1  0  0  0  0
 13 12  1  0  0  0  0
 15 16  1  0  0  0  0
 15 14  1  0  0  0  0
 17 18  1  0  0  0  0
 17 16  1  0  0  0  0
M  END
$$$$
